MAPK1_r01_cid861731
     RDKit          3D

 45 48  0  0  0  0  0  0  0  0999 V2000
   -4.2879    3.3985   -2.0213 C   0  0  0  0  0  0  0  0  0  0  0  0
   -4.5994    2.1334   -1.4551 O   0  0  0  0  0  0  0  0  0  0  0  0
   -3.5562    1.2884   -1.1693 C   0  0  0  0  0  0  0  0  0  0  0  0
   -2.2122    1.5818   -1.4152 C   0  0  0  0  0  0  0  0  0  0  0  0
   -1.2186    0.6549   -1.0925 C   0  0  0  0  0  0  0  0  0  0  0  0
   -1.5575   -0.5787   -0.5263 C   0  0  0  0  0  0  0  0  0  0  0  0
   -0.4556   -1.5423   -0.1972 C   0  0  0  0  0  0  0  0  0  0  0  0
    0.7054   -1.0302    0.0972 N   0  0  0  0  0  0  0  0  0  0  0  0
    1.7425   -1.8877    0.3409 N   0  0  0  0  0  0  0  0  0  0  0  0
    1.8257   -3.2366    0.1059 C   0  0  0  0  0  0  0  0  0  0  0  0
    2.9706   -3.7215    0.5143 N   0  0  0  0  0  0  0  0  0  0  0  0
    3.6937   -2.6664    1.0218 N   0  0  0  0  0  0  0  0  0  0  0  0
    2.9829   -1.5591    0.8671 C   0  0  0  0  0  0  0  0  0  0  0  0
    3.4082   -0.2126    1.2372 C   0  0  0  0  0  0  0  0  0  0  0  0
    3.8787    0.0170    2.5390 C   0  0  0  0  0  0  0  0  0  0  0  0
    4.2760    1.2956    2.9397 C   0  0  0  0  0  0  0  0  0  0  0  0
    4.2116    2.3603    2.0425 C   0  0  0  0  0  0  0  0  0  0  0  0
    3.7686    2.1446    0.7385 C   0  0  0  0  0  0  0  0  0  0  0  0
    3.3948    0.8603    0.3323 C   0  0  0  0  0  0  0  0  0  0  0  0
    2.9854    0.6967   -0.9682 O   0  0  0  0  0  0  0  0  0  0  0  0
    4.1058    0.3757   -1.7956 C   0  0  0  0  0  0  0  0  0  0  0  0
    0.5506   -4.0828   -0.6766 S   0  0  0  0  0  0  0  0  0  0  0  0
   -0.8125   -3.0227   -0.1629 C   0  0  0  0  0  0  0  0  0  0  0  0
   -2.9010   -0.8739   -0.2635 C   0  0  0  0  0  0  0  0  0  0  0  0
   -3.9029    0.0514   -0.5863 C   0  0  0  0  0  0  0  0  0  0  0  0
   -5.2439   -0.1524   -0.3695 O   0  0  0  0  0  0  0  0  0  0  0  0
   -5.6496   -1.3803    0.2165 C   0  0  0  0  0  0  0  0  0  0  0  0
   -5.2281    3.9373   -2.1736 H   0  0  0  0  0  0  0  0  0  0  0  0
   -3.6700    3.9945   -1.3417 H   0  0  0  0  0  0  0  0  0  0  0  0
   -3.8075    3.2860   -2.9988 H   0  0  0  0  0  0  0  0  0  0  0  0
   -1.9007    2.5234   -1.8553 H   0  0  0  0  0  0  0  0  0  0  0  0
   -0.1767    0.9061   -1.2887 H   0  0  0  0  0  0  0  0  0  0  0  0
    3.9312   -0.8044    3.2517 H   0  0  0  0  0  0  0  0  0  0  0  0
    4.6312    1.4590    3.9542 H   0  0  0  0  0  0  0  0  0  0  0  0
    4.5114    3.3565    2.3573 H   0  0  0  0  0  0  0  0  0  0  0  0
    3.7217    2.9720    0.0363 H   0  0  0  0  0  0  0  0  0  0  0  0
    4.5948   -0.5489   -1.4705 H   0  0  0  0  0  0  0  0  0  0  0  0
    3.7349    0.2218   -2.8133 H   0  0  0  0  0  0  0  0  0  0  0  0
    4.8270    1.2000   -1.8188 H   0  0  0  0  0  0  0  0  0  0  0  0
   -1.6559   -3.2354   -0.8252 H   0  0  0  0  0  0  0  0  0  0  0  0
   -1.1001   -3.2800    0.8621 H   0  0  0  0  0  0  0  0  0  0  0  0
   -3.1610   -1.8125    0.2099 H   0  0  0  0  0  0  0  0  0  0  0  0
   -6.7403   -1.3654    0.3042 H   0  0  0  0  0  0  0  0  0  0  0  0
   -5.2365   -1.4918    1.2243 H   0  0  0  0  0  0  0  0  0  0  0  0
   -5.3788   -2.2298   -0.4191 H   0  0  0  0  0  0  0  0  0  0  0  0
  1  2  1  0
  2  3  1  0
  3  4  2  0
  4  5  1  0
  5  6  2  0
  6  7  1  0
  7  8  2  0
  8  9  1  0
  9 10  1  0
 10 11  2  0
 11 12  1  0
 12 13  2  0
 13 14  1  0
 14 15  2  0
 15 16  1  0
 16 17  2  0
 17 18  1  0
 18 19  2  0
 19 20  1  0
 20 21  1  0
 10 22  1  0
 22 23  1  0
  6 24  1  0
 24 25  2  0
 25 26  1  0
 26 27  1  0
 25  3  1  0
 23  7  1  0
 13  9  1  0
 19 14  1  0
  1 28  1  0
  1 29  1  0
  1 30  1  0
  4 31  1  0
  5 32  1  0
 15 33  1  0
 16 34  1  0
 17 35  1  0
 18 36  1  0
 21 37  1  0
 21 38  1  0
 21 39  1  0
 23 40  1  0
 23 41  1  0
 24 42  1  0
 27 43  1  0
 27 44  1  0
 27 45  1  0
M  END
>  <docking_id>  (1) 
MAPK1_r01_cid861731

>  <target>  (1) 
MAPK1

>  <compound_id>  (1) 
861731

>  <admet_priority_rank>  (1) 
1

>  <priority_score>  (1) 
0.9131231336459392

>  <ensemble_calibrated_mean>  (1) 
0.0651282057739221

>  <admet_support_score>  (1) 
0.6404463818351751

>  <toxicity_burden>  (1) 
0.520956375

>  <label>  (1) 
1

$$$$
MAPK1_r02_cid4247709
     RDKit          3D

 42 44  0  0  0  0  0  0  0  0999 V2000
    2.0686   -1.4125   -0.5375 O   0  0  0  0  0  0  0  0  0  0  0  0
    2.1777   -0.2097   -0.3387 C   0  0  0  0  0  0  0  0  0  0  0  0
    3.3465    0.5255   -0.2704 N   0  0  0  0  0  0  0  0  0  0  0  0
    4.6613    0.0560   -0.4788 C   0  0  0  0  0  0  0  0  0  0  0  0
    4.9709   -1.2501   -0.8774 C   0  0  0  0  0  0  0  0  0  0  0  0
    6.3018   -1.6407   -1.0696 C   0  0  0  0  0  0  0  0  0  0  0  0
    7.3241   -0.7241   -0.8656 C   0  0  0  0  0  0  0  0  0  0  0  0
    8.5963   -1.1000   -1.0519 F   0  0  0  0  0  0  0  0  0  0  0  0
    7.0263    0.5730   -0.4736 C   0  0  0  0  0  0  0  0  0  0  0  0
    8.0098    1.4621   -0.2780 F   0  0  0  0  0  0  0  0  0  0  0  0
    5.7047    0.9692   -0.2799 C   0  0  0  0  0  0  0  0  0  0  0  0
    0.9312    0.5709   -0.1114 C   0  0  0  0  0  0  0  0  0  0  0  0
    0.7656    1.8577   -0.6445 C   0  0  0  0  0  0  0  0  0  0  0  0
   -0.4291    2.5504   -0.4307 C   0  0  0  0  0  0  0  0  0  0  0  0
   -1.4553    1.9595    0.3037 C   0  0  0  0  0  0  0  0  0  0  0  0
   -2.5909    2.6473    0.4755 F   0  0  0  0  0  0  0  0  0  0  0  0
   -1.2977    0.6791    0.8189 C   0  0  0  0  0  0  0  0  0  0  0  0
   -2.6096   -0.0324    1.7530 S   0  0  0  0  0  0  0  0  0  0  0  0
   -2.9995    0.9278    2.7616 O   0  0  0  0  0  0  0  0  0  0  0  0
   -2.2222   -1.3781    2.1236 O   0  0  0  0  0  0  0  0  0  0  0  0
   -3.8652   -0.1797    0.6141 N   0  0  0  0  0  0  0  0  0  0  0  0
   -3.6436   -1.1699   -0.4903 C   0  0  0  0  0  0  0  0  0  0  0  0
   -4.5049   -2.4201   -0.2889 C   0  0  0  0  0  0  0  0  0  0  0  0
   -5.9114   -2.1364   -0.2973 O   0  0  0  0  0  0  0  0  0  0  0  0
   -6.2317   -0.8353    0.2169 C   0  0  0  0  0  0  0  0  0  0  0  0
   -5.2174   -0.3273    1.2450 C   0  0  0  0  0  0  0  0  0  0  0  0
   -0.1067   -0.0258    0.6160 C   0  0  0  0  0  0  0  0  0  0  0  0
    3.2667    1.4906    0.0251 H   0  0  0  0  0  0  0  0  0  0  0  0
    4.1977   -1.9932   -1.0506 H   0  0  0  0  0  0  0  0  0  0  0  0
    6.5392   -2.6546   -1.3773 H   0  0  0  0  0  0  0  0  0  0  0  0
    5.5168    1.9928    0.0276 H   0  0  0  0  0  0  0  0  0  0  0  0
    1.5405    2.3182   -1.2528 H   0  0  0  0  0  0  0  0  0  0  0  0
   -0.5746    3.5457   -0.8426 H   0  0  0  0  0  0  0  0  0  0  0  0
   -2.5900   -1.4526   -0.5706 H   0  0  0  0  0  0  0  0  0  0  0  0
   -3.9150   -0.6704   -1.4279 H   0  0  0  0  0  0  0  0  0  0  0  0
   -4.3139   -3.1419   -1.0892 H   0  0  0  0  0  0  0  0  0  0  0  0
   -4.2648   -2.9124    0.6604 H   0  0  0  0  0  0  0  0  0  0  0  0
   -7.2280   -0.8971    0.6659 H   0  0  0  0  0  0  0  0  0  0  0  0
   -6.2973   -0.1467   -0.6336 H   0  0  0  0  0  0  0  0  0  0  0  0
   -5.5376    0.6487    1.6238 H   0  0  0  0  0  0  0  0  0  0  0  0
   -5.1602   -1.0359    2.0797 H   0  0  0  0  0  0  0  0  0  0  0  0
    0.0209   -1.0303    1.0182 H   0  0  0  0  0  0  0  0  0  0  0  0
  1  2  2  0
  2  3  1  0
  3  4  1  0
  4  5  2  0
  5  6  1  0
  6  7  2  0
  7  8  1  0
  7  9  1  0
  9 10  1  0
  9 11  2  0
  2 12  1  0
 12 13  2  0
 13 14  1  0
 14 15  2  0
 15 16  1  0
 15 17  1  0
 17 18  1  0
 18 19  2  0
 18 20  2  0
 18 21  1  0
 21 22  1  0
 22 23  1  0
 23 24  1  0
 24 25  1  0
 25 26  1  0
 17 27  2  0
 11  4  1  0
 27 12  1  0
 26 21  1  0
  3 28  1  0
  5 29  1  0
  6 30  1  0
 11 31  1  0
 13 32  1  0
 14 33  1  0
 22 34  1  0
 22 35  1  0
 23 36  1  0
 23 37  1  0
 25 38  1  0
 25 39  1  0
 26 40  1  0
 26 41  1  0
 27 42  1  0
M  END
>  <docking_id>  (2) 
MAPK1_r02_cid4247709

>  <target>  (2) 
MAPK1

>  <compound_id>  (2) 
4247709

>  <admet_priority_rank>  (2) 
2

>  <priority_score>  (2) 
0.9010125839817252

>  <ensemble_calibrated_mean>  (2) 
0.0651282057739221

>  <admet_support_score>  (2) 
0.7643786375428796

>  <toxicity_burden>  (2) 
0.40988514136

>  <label>  (2) 
0

$$$$
MAPK1_r03_cid862804
     RDKit          3D

 47 48  0  0  0  0  0  0  0  0999 V2000
   -6.5710    0.3944    3.2547 C   0  0  0  0  0  0  0  0  0  0  0  0
   -6.4370    0.0029    1.8962 O   0  0  0  0  0  0  0  0  0  0  0  0
   -5.1901    0.0686    1.3283 C   0  0  0  0  0  0  0  0  0  0  0  0
   -4.0338    0.4680    2.0035 C   0  0  0  0  0  0  0  0  0  0  0  0
   -2.8026    0.5019    1.3399 C   0  0  0  0  0  0  0  0  0  0  0  0
   -2.7046    0.1375   -0.0085 C   0  0  0  0  0  0  0  0  0  0  0  0
   -1.4324    0.1616   -0.7263 C   0  0  0  0  0  0  0  0  0  0  0  0
   -1.1833   -0.1397   -1.9862 N   0  0  0  0  0  0  0  0  0  0  0  0
    0.1704    0.0625   -2.1083 C   0  0  0  0  0  0  0  0  0  0  0  0
    0.8390   -0.1495   -3.3475 C   0  0  0  0  0  0  0  0  0  0  0  0
    1.4627   -0.3075   -4.3147 N   0  0  0  0  0  0  0  0  0  0  0  0
    0.7118    0.4761   -0.9065 C   0  0  0  0  0  0  0  0  0  0  0  0
    1.9178    0.8192   -0.3830 N   0  0  0  0  0  0  0  0  0  0  0  0
    3.0453    1.1845   -1.2250 C   0  0  0  0  0  0  0  0  0  0  0  0
    3.8940   -0.0352   -1.5868 C   0  0  0  0  0  0  0  0  0  0  0  0
    4.4255   -0.8457   -0.4066 C   0  0  0  0  0  0  0  0  0  0  0  0
    5.5513   -0.1227    0.3153 N   0  0  0  0  0  0  0  0  0  0  0  0
    5.1207    0.4320    1.6466 C   0  0  0  0  0  0  0  0  0  0  0  0
    6.7723   -0.9955    0.4695 C   0  0  0  0  0  0  0  0  0  0  0  0
   -0.3229    0.5441   -0.0150 O   0  0  0  0  0  0  0  0  0  0  0  0
   -3.8696   -0.2626   -0.6830 C   0  0  0  0  0  0  0  0  0  0  0  0
   -5.1075   -0.3001   -0.0287 C   0  0  0  0  0  0  0  0  0  0  0  0
   -6.2858   -0.6815   -0.6206 O   0  0  0  0  0  0  0  0  0  0  0  0
   -6.2584   -1.0277   -1.9980 C   0  0  0  0  0  0  0  0  0  0  0  0
   -6.2920    1.4441    3.3929 H   0  0  0  0  0  0  0  0  0  0  0  0
   -7.6250    0.2916    3.5305 H   0  0  0  0  0  0  0  0  0  0  0  0
   -5.9899   -0.2599    3.9127 H   0  0  0  0  0  0  0  0  0  0  0  0
   -4.0572    0.7591    3.0486 H   0  0  0  0  0  0  0  0  0  0  0  0
   -1.9230    0.8185    1.8958 H   0  0  0  0  0  0  0  0  0  0  0  0
    1.8220    1.3890    0.4595 H   0  0  0  0  0  0  0  0  0  0  0  0
    2.7132    1.7030   -2.1320 H   0  0  0  0  0  0  0  0  0  0  0  0
    3.6662    1.9053   -0.6811 H   0  0  0  0  0  0  0  0  0  0  0  0
    3.2964   -0.7198   -2.1969 H   0  0  0  0  0  0  0  0  0  0  0  0
    4.7289    0.2871   -2.2211 H   0  0  0  0  0  0  0  0  0  0  0  0
    3.6504   -1.1021    0.3233 H   0  0  0  0  0  0  0  0  0  0  0  0
    4.8382   -1.7866   -0.7890 H   0  0  0  0  0  0  0  0  0  0  0  0
    5.8548    0.6719   -0.2616 H   0  0  0  0  0  0  0  0  0  0  0  0
    4.8484   -0.4007    2.3009 H   0  0  0  0  0  0  0  0  0  0  0  0
    4.2695    1.0960    1.4849 H   0  0  0  0  0  0  0  0  0  0  0  0
    5.9577    0.9985    2.0634 H   0  0  0  0  0  0  0  0  0  0  0  0
    6.5044   -1.8656    1.0749 H   0  0  0  0  0  0  0  0  0  0  0  0
    7.5530   -0.4037    0.9548 H   0  0  0  0  0  0  0  0  0  0  0  0
    7.1011   -1.2938   -0.5296 H   0  0  0  0  0  0  0  0  0  0  0  0
   -3.7867   -0.5446   -1.7291 H   0  0  0  0  0  0  0  0  0  0  0  0
   -7.2787   -1.2846   -2.2988 H   0  0  0  0  0  0  0  0  0  0  0  0
   -5.6296   -1.9072   -2.1707 H   0  0  0  0  0  0  0  0  0  0  0  0
   -5.9339   -0.1812   -2.6121 H   0  0  0  0  0  0  0  0  0  0  0  0
  1  2  1  0
  2  3  1  0
  3  4  2  0
  4  5  1  0
  5  6  2  0
  6  7  1  0
  7  8  2  0
  8  9  1  0
  9 10  1  0
 10 11  3  0
  9 12  2  0
 12 13  1  0
 13 14  1  0
 14 15  1  0
 15 16  1  0
 16 17  1  0
 17 18  1  0
 17 19  1  0
 12 20  1  0
  6 21  1  0
 21 22  2  0
 22 23  1  0
 23 24  1  0
 22  3  1  0
 20  7  1  0
  1 25  1  0
  1 26  1  0
  1 27  1  0
  4 28  1  0
  5 29  1  0
 13 30  1  0
 14 31  1  0
 14 32  1  0
 15 33  1  0
 15 34  1  0
 16 35  1  0
 16 36  1  0
 17 37  1  0
 18 38  1  0
 18 39  1  0
 18 40  1  0
 19 41  1  0
 19 42  1  0
 19 43  1  0
 21 44  1  0
 24 45  1  0
 24 46  1  0
 24 47  1  0
M  CHG  1  17   1
M  END
>  <docking_id>  (3) 
MAPK1_r03_cid862804

>  <target>  (3) 
MAPK1

>  <compound_id>  (3) 
862804

>  <admet_priority_rank>  (3) 
3

>  <priority_score>  (3) 
0.9103647279872814

>  <ensemble_calibrated_mean>  (3) 
0.0623809530266693

>  <admet_support_score>  (3) 
0.660479249352528

>  <toxicity_burden>  (3) 
0.5295540919999999

>  <label>  (3) 
0

$$$$
MAPK1_r04_cid849019
     RDKit          3D

 32 33  0  0  0  0  0  0  0  0999 V2000
    3.9442   -0.1455   -2.7712 C   0  0  0  0  0  0  0  0  0  0  0  0
    3.0588   -0.3872   -1.7949 C   0  0  0  0  0  0  0  0  0  0  0  0
    3.3357   -0.2228   -0.3296 C   0  0  0  0  0  0  0  0  0  0  0  0
    2.3688    1.1529    0.3500 S   0  0  0  0  0  0  0  0  0  0  0  0
    0.7983    0.4393    0.5175 C   0  0  0  0  0  0  0  0  0  0  0  0
    0.5291   -0.8422    0.3721 N   0  0  0  0  0  0  0  0  0  0  0  0
   -0.8113   -0.9331    0.5714 C   0  0  0  0  0  0  0  0  0  0  0  0
   -1.3729    0.2820    0.8426 C   0  0  0  0  0  0  0  0  0  0  0  0
   -2.7668    0.4420    1.0724 C   0  0  0  0  0  0  0  0  0  0  0  0
   -3.3312    1.5052    1.3015 O   0  0  0  0  0  0  0  0  0  0  0  0
   -3.4517   -0.7509    1.0053 N   0  0  0  0  0  0  0  0  0  0  0  0
   -2.9334   -2.0038    0.7331 C   0  0  0  0  0  0  0  0  0  0  0  0
   -3.6975   -2.9683    0.6996 O   0  0  0  0  0  0  0  0  0  0  0  0
   -1.5632   -2.0872    0.5109 N   0  0  0  0  0  0  0  0  0  0  0  0
   -0.9366   -3.3614    0.2173 C   0  0  0  0  0  0  0  0  0  0  0  0
   -0.3293    1.1723    0.8196 N   0  0  0  0  0  0  0  0  0  0  0  0
   -0.4264    2.5980    1.0708 C   0  0  0  0  0  0  0  0  0  0  0  0
   -0.7359    3.3876   -0.1893 C   0  0  0  0  0  0  0  0  0  0  0  0
    3.6758   -0.2985   -3.8121 H   0  0  0  0  0  0  0  0  0  0  0  0
    4.9470    0.2119   -2.5590 H   0  0  0  0  0  0  0  0  0  0  0  0
    2.0689   -0.7540   -2.0615 H   0  0  0  0  0  0  0  0  0  0  0  0
    4.3937    0.0074   -0.1628 H   0  0  0  0  0  0  0  0  0  0  0  0
    3.1280   -1.1544    0.2066 H   0  0  0  0  0  0  0  0  0  0  0  0
   -4.4472   -0.7096    1.1563 H   0  0  0  0  0  0  0  0  0  0  0  0
   -0.4593   -3.3066   -0.7662 H   0  0  0  0  0  0  0  0  0  0  0  0
   -1.6645   -4.1770    0.2090 H   0  0  0  0  0  0  0  0  0  0  0  0
   -0.1811   -3.5727    0.9806 H   0  0  0  0  0  0  0  0  0  0  0  0
   -1.2026    2.7574    1.8261 H   0  0  0  0  0  0  0  0  0  0  0  0
    0.5101    2.9408    1.5211 H   0  0  0  0  0  0  0  0  0  0  0  0
   -0.8058    4.4553    0.0401 H   0  0  0  0  0  0  0  0  0  0  0  0
   -1.6862    3.0716   -0.6322 H   0  0  0  0  0  0  0  0  0  0  0  0
    0.0446    3.2516   -0.9450 H   0  0  0  0  0  0  0  0  0  0  0  0
  1  2  2  0
  2  3  1  0
  3  4  1  0
  4  5  1  0
  5  6  2  0
  6  7  1  0
  7  8  2  0
  8  9  1  0
  9 10  2  0
  9 11  1  0
 11 12  1  0
 12 13  2  0
 12 14  1  0
 14 15  1  0
  8 16  1  0
 16 17  1  0
 17 18  1  0
 16  5  1  0
 14  7  1  0
  1 19  1  0
  1 20  1  0
  2 21  1  0
  3 22  1  0
  3 23  1  0
 11 24  1  0
 15 25  1  0
 15 26  1  0
 15 27  1  0
 17 28  1  0
 17 29  1  0
 18 30  1  0
 18 31  1  0
 18 32  1  0
M  END
>  <docking_id>  (4) 
MAPK1_r04_cid849019

>  <target>  (4) 
MAPK1

>  <compound_id>  (4) 
849019

>  <admet_priority_rank>  (4) 
4

>  <priority_score>  (4) 
0.901911776324042

>  <ensemble_calibrated_mean>  (4) 
0.0635340263162994

>  <admet_support_score>  (4) 
0.7443924181987602

>  <toxicity_burden>  (4) 
0.3912249044799999

>  <label>  (4) 
0

$$$$
MAPK1_r05_cid4238114
     RDKit          3D

 36 38  0  0  0  0  0  0  0  0999 V2000
    4.1328    3.6161    2.6372 N   0  0  0  0  0  0  0  0  0  0  0  0
    4.2306    2.6593    1.9875 C   0  0  0  0  0  0  0  0  0  0  0  0
    4.3578    1.4753    1.1891 C   0  0  0  0  0  0  0  0  0  0  0  0
    5.6110    0.8883    1.0035 C   0  0  0  0  0  0  0  0  0  0  0  0
    5.7284   -0.2624    0.2285 C   0  0  0  0  0  0  0  0  0  0  0  0
    4.5927   -0.8271   -0.3605 C   0  0  0  0  0  0  0  0  0  0  0  0
    3.3130   -0.2616   -0.1936 C   0  0  0  0  0  0  0  0  0  0  0  0
    2.1154   -0.8629   -0.8173 C   0  0  0  0  0  0  0  0  0  0  0  0
    2.2817   -1.9729   -1.5608 N   0  0  0  0  0  0  0  0  0  0  0  0
    1.1730   -2.4840   -2.1199 C   0  0  0  0  0  0  0  0  0  0  0  0
   -0.0779   -1.9427   -1.9518 C   0  0  0  0  0  0  0  0  0  0  0  0
   -0.1553   -0.8178   -1.1600 C   0  0  0  0  0  0  0  0  0  0  0  0
   -1.3633   -0.1602   -0.9252 N   0  0  0  0  0  0  0  0  0  0  0  0
   -2.3863   -0.9873   -0.2969 C   0  0  0  0  0  0  0  0  0  0  0  0
   -3.5297   -0.1090    0.1538 C   0  0  0  0  0  0  0  0  0  0  0  0
   -4.3716    0.4983   -0.7903 C   0  0  0  0  0  0  0  0  0  0  0  0
   -5.4255    1.3153   -0.3792 C   0  0  0  0  0  0  0  0  0  0  0  0
   -5.6469    1.5371    0.9785 C   0  0  0  0  0  0  0  0  0  0  0  0
   -4.8129    0.9459    1.9259 C   0  0  0  0  0  0  0  0  0  0  0  0
   -3.7575    0.1285    1.5170 C   0  0  0  0  0  0  0  0  0  0  0  0
    0.9277   -0.2645   -0.5972 N   0  0  0  0  0  0  0  0  0  0  0  0
    3.2242    0.9037    0.5949 C   0  0  0  0  0  0  0  0  0  0  0  0
    6.4994    1.3218    1.4586 H   0  0  0  0  0  0  0  0  0  0  0  0
    6.7017   -0.7241    0.0791 H   0  0  0  0  0  0  0  0  0  0  0  0
    4.7132   -1.7278   -0.9625 H   0  0  0  0  0  0  0  0  0  0  0  0
    1.3244   -3.3678   -2.7324 H   0  0  0  0  0  0  0  0  0  0  0  0
   -0.9439   -2.3689   -2.4376 H   0  0  0  0  0  0  0  0  0  0  0  0
   -1.1268    0.6322   -0.3282 H   0  0  0  0  0  0  0  0  0  0  0  0
   -2.7771   -1.7346   -0.9986 H   0  0  0  0  0  0  0  0  0  0  0  0
   -1.9747   -1.5299    0.5643 H   0  0  0  0  0  0  0  0  0  0  0  0
   -4.1981    0.3430   -1.8534 H   0  0  0  0  0  0  0  0  0  0  0  0
   -6.0697    1.7834   -1.1189 H   0  0  0  0  0  0  0  0  0  0  0  0
   -6.4660    2.1760    1.2983 H   0  0  0  0  0  0  0  0  0  0  0  0
   -4.9826    1.1252    2.9846 H   0  0  0  0  0  0  0  0  0  0  0  0
   -3.1134   -0.3186    2.2710 H   0  0  0  0  0  0  0  0  0  0  0  0
    2.2522    1.3745    0.7471 H   0  0  0  0  0  0  0  0  0  0  0  0
  1  2  3  0
  2  3  1  0
  3  4  2  0
  4  5  1  0
  5  6  2  0
  6  7  1  0
  7  8  1  0
  8  9  2  0
  9 10  1  0
 10 11  2  0
 11 12  1  0
 12 13  1  0
 13 14  1  0
 14 15  1  0
 15 16  2  0
 16 17  1  0
 17 18  2  0
 18 19  1  0
 19 20  2  0
 12 21  2  0
  7 22  2  0
 22  3  1  0
 21  8  1  0
 20 15  1  0
  4 23  1  0
  5 24  1  0
  6 25  1  0
 10 26  1  0
 11 27  1  0
 13 28  1  0
 14 29  1  0
 14 30  1  0
 16 31  1  0
 17 32  1  0
 18 33  1  0
 19 34  1  0
 20 35  1  0
 22 36  1  0
M  END
>  <docking_id>  (5) 
MAPK1_r05_cid4238114

>  <target>  (5) 
MAPK1

>  <compound_id>  (5) 
4238114

>  <admet_priority_rank>  (5) 
5

>  <priority_score>  (5) 
0.913777930117805

>  <ensemble_calibrated_mean>  (5) 
0.0651282057739221

>  <admet_support_score>  (5) 
0.5994035238243891

>  <toxicity_burden>  (5) 
0.6812612978

>  <label>  (5) 
0

$$$$
MAPK1_r06_cid4239535
     RDKit          3D

 35 37  0  0  0  0  0  0  0  0999 V2000
    4.5319    1.9873   -1.0102 C   0  0  0  0  0  0  0  0  0  0  0  0
    3.2474    1.4544   -0.5845 N   0  0  0  0  0  0  0  0  0  0  0  0
    3.1311    0.0471   -0.6790 C   0  0  0  0  0  0  0  0  0  0  0  0
    4.1928   -0.6642   -1.0970 N   0  0  0  0  0  0  0  0  0  0  0  0
    4.0340   -1.9891   -1.1762 C   0  0  0  0  0  0  0  0  0  0  0  0
    2.9252   -2.6754   -0.8815 N   0  0  0  0  0  0  0  0  0  0  0  0
    1.8819   -1.9627   -0.4476 C   0  0  0  0  0  0  0  0  0  0  0  0
    0.7121   -2.6318   -0.1160 C   0  0  0  0  0  0  0  0  0  0  0  0
   -0.4183   -1.9562    0.3574 C   0  0  0  0  0  0  0  0  0  0  0  0
   -0.4048   -0.5685    0.5181 C   0  0  0  0  0  0  0  0  0  0  0  0
   -1.5789    0.1545    1.0400 C   0  0  0  0  0  0  0  0  0  0  0  0
   -1.4696    0.8413    2.2651 C   0  0  0  0  0  0  0  0  0  0  0  0
   -2.5523    1.5361    2.8031 C   0  0  0  0  0  0  0  0  0  0  0  0
   -3.7649    1.5566    2.1242 C   0  0  0  0  0  0  0  0  0  0  0  0
   -3.8981    0.8850    0.9069 C   0  0  0  0  0  0  0  0  0  0  0  0
   -2.8164    0.1846    0.3562 C   0  0  0  0  0  0  0  0  0  0  0  0
   -2.8645   -0.4868   -0.8410 O   0  0  0  0  0  0  0  0  0  0  0  0
   -4.0863   -0.4611   -1.5656 C   0  0  0  0  0  0  0  0  0  0  0  0
    0.7740    0.1127    0.1832 C   0  0  0  0  0  0  0  0  0  0  0  0
    1.9186   -0.5691   -0.3098 C   0  0  0  0  0  0  0  0  0  0  0  0
    4.7302    1.7688   -2.0653 H   0  0  0  0  0  0  0  0  0  0  0  0
    4.5189    3.0760   -0.8955 H   0  0  0  0  0  0  0  0  0  0  0  0
    5.3509    1.6045   -0.3917 H   0  0  0  0  0  0  0  0  0  0  0  0
    2.4814    1.8712   -1.1072 H   0  0  0  0  0  0  0  0  0  0  0  0
    4.8886   -2.5640   -1.5156 H   0  0  0  0  0  0  0  0  0  0  0  0
    0.6750   -3.7133   -0.2256 H   0  0  0  0  0  0  0  0  0  0  0  0
   -1.3119   -2.5260    0.6042 H   0  0  0  0  0  0  0  0  0  0  0  0
   -0.5294    0.8268    2.8141 H   0  0  0  0  0  0  0  0  0  0  0  0
   -2.4473    2.0564    3.7516 H   0  0  0  0  0  0  0  0  0  0  0  0
   -4.6113    2.0964    2.5414 H   0  0  0  0  0  0  0  0  0  0  0  0
   -4.8622    0.9300    0.4115 H   0  0  0  0  0  0  0  0  0  0  0  0
   -4.8917   -0.9396   -0.9988 H   0  0  0  0  0  0  0  0  0  0  0  0
   -4.3545    0.5610   -1.8523 H   0  0  0  0  0  0  0  0  0  0  0  0
   -3.9411   -1.0362   -2.4852 H   0  0  0  0  0  0  0  0  0  0  0  0
    0.8095    1.1930    0.3113 H   0  0  0  0  0  0  0  0  0  0  0  0
  1  2  1  0
  2  3  1  0
  3  4  2  0
  4  5  1  0
  5  6  2  0
  6  7  1  0
  7  8  2  0
  8  9  1  0
  9 10  2  0
 10 11  1  0
 11 12  2  0
 12 13  1  0
 13 14  2  0
 14 15  1  0
 15 16  2  0
 16 17  1  0
 17 18  1  0
 10 19  1  0
 19 20  2  0
 20  3  1  0
 20  7  1  0
 16 11  1  0
  1 21  1  0
  1 22  1  0
  1 23  1  0
  2 24  1  0
  5 25  1  0
  8 26  1  0
  9 27  1  0
 12 28  1  0
 13 29  1  0
 14 30  1  0
 15 31  1  0
 18 32  1  0
 18 33  1  0
 18 34  1  0
 19 35  1  0
M  END
>  <docking_id>  (6) 
MAPK1_r06_cid4239535

>  <target>  (6) 
MAPK1

>  <compound_id>  (6) 
4239535

>  <admet_priority_rank>  (6) 
6

>  <priority_score>  (6) 
0.907327834270104

>  <ensemble_calibrated_mean>  (6) 
0.0623809530266693

>  <admet_support_score>  (6) 
0.6793624727165365

>  <toxicity_burden>  (6) 
0.6901465156

>  <label>  (6) 
0

$$$$
MAPK1_r07_cid863449
     RDKit          3D

 53 54  0  0  0  0  0  0  0  0999 V2000
   -2.2481    0.1611   -3.0622 C   0  0  0  0  0  0  0  0  0  0  0  0
   -2.7534    0.9036   -1.8376 C   0  0  0  0  0  0  0  0  0  0  0  0
   -3.4081   -0.0691   -0.8659 N   0  0  0  0  0  0  0  0  0  0  0  0
   -4.4478    0.6264    0.0030 C   0  0  0  0  0  0  0  0  0  0  0  0
   -5.7581    0.7578   -0.7531 C   0  0  0  0  0  0  0  0  0  0  0  0
   -2.3670   -0.7979   -0.0171 C   0  0  0  0  0  0  0  0  0  0  0  0
   -2.9049   -2.1509    0.4452 C   0  0  0  0  0  0  0  0  0  0  0  0
   -1.8582   -2.9471    1.2292 C   0  0  0  0  0  0  0  0  0  0  0  0
   -1.5406   -2.2719    2.4757 N   0  0  0  0  0  0  0  0  0  0  0  0
   -0.3986   -1.5609    2.6335 C   0  0  0  0  0  0  0  0  0  0  0  0
    0.3289   -1.2486    1.5180 O   0  0  0  0  0  0  0  0  0  0  0  0
    1.3825   -0.5035    1.9876 C   0  0  0  0  0  0  0  0  0  0  0  0
    2.3127   -0.0005    0.9850 C   0  0  0  0  0  0  0  0  0  0  0  0
    2.4861   -0.6398   -0.2482 C   0  0  0  0  0  0  0  0  0  0  0  0
    3.3730   -0.1260   -1.2036 C   0  0  0  0  0  0  0  0  0  0  0  0
    4.1078    1.0370   -0.9454 C   0  0  0  0  0  0  0  0  0  0  0  0
    4.9390    1.6297   -1.8559 O   0  0  0  0  0  0  0  0  0  0  0  0
    5.2788    0.8961   -3.0255 C   0  0  0  0  0  0  0  0  0  0  0  0
    3.9539    1.6675    0.3004 C   0  0  0  0  0  0  0  0  0  0  0  0
    4.5724    2.8262    0.6962 O   0  0  0  0  0  0  0  0  0  0  0  0
    5.9611    2.9088    0.3848 C   0  0  0  0  0  0  0  0  0  0  0  0
    3.0569    1.1541    1.2464 C   0  0  0  0  0  0  0  0  0  0  0  0
    1.3607   -0.2968    3.2891 N   0  0  0  0  0  0  0  0  0  0  0  0
    0.2495   -0.9886    3.7084 C   0  0  0  0  0  0  0  0  0  0  0  0
   -0.1567   -1.0243    5.0736 C   0  0  0  0  0  0  0  0  0  0  0  0
   -0.5454   -1.0755    6.1664 N   0  0  0  0  0  0  0  0  0  0  0  0
   -3.0638   -0.3684   -3.5655 H   0  0  0  0  0  0  0  0  0  0  0  0
   -1.8181    0.8707   -3.7763 H   0  0  0  0  0  0  0  0  0  0  0  0
   -1.4719   -0.5675   -2.8126 H   0  0  0  0  0  0  0  0  0  0  0  0
   -1.9503    1.4234   -1.3045 H   0  0  0  0  0  0  0  0  0  0  0  0
   -3.5053    1.6359   -2.1448 H   0  0  0  0  0  0  0  0  0  0  0  0
   -3.9024   -0.7750   -1.4271 H   0  0  0  0  0  0  0  0  0  0  0  0
   -4.6070    0.0185    0.8979 H   0  0  0  0  0  0  0  0  0  0  0  0
   -4.0406    1.5973    0.3043 H   0  0  0  0  0  0  0  0  0  0  0  0
   -6.5130    1.2237   -0.1115 H   0  0  0  0  0  0  0  0  0  0  0  0
   -6.1365   -0.2236   -1.0576 H   0  0  0  0  0  0  0  0  0  0  0  0
   -5.6573    1.3769   -1.6488 H   0  0  0  0  0  0  0  0  0  0  0  0
   -1.4786   -0.9481   -0.6374 H   0  0  0  0  0  0  0  0  0  0  0  0
   -2.1125   -0.1277    0.8099 H   0  0  0  0  0  0  0  0  0  0  0  0
   -3.7984   -2.0207    1.0659 H   0  0  0  0  0  0  0  0  0  0  0  0
   -3.2077   -2.7410   -0.4284 H   0  0  0  0  0  0  0  0  0  0  0  0
   -0.9697   -3.1351    0.6143 H   0  0  0  0  0  0  0  0  0  0  0  0
   -2.2770   -3.9315    1.4699 H   0  0  0  0  0  0  0  0  0  0  0  0
   -1.9738   -2.6841    3.3058 H   0  0  0  0  0  0  0  0  0  0  0  0
    1.9424   -1.5534   -0.4787 H   0  0  0  0  0  0  0  0  0  0  0  0
    3.4609   -0.6546   -2.1478 H   0  0  0  0  0  0  0  0  0  0  0  0
    6.0362    1.4680   -3.5702 H   0  0  0  0  0  0  0  0  0  0  0  0
    4.4103    0.7843   -3.6824 H   0  0  0  0  0  0  0  0  0  0  0  0
    5.7134   -0.0770   -2.7734 H   0  0  0  0  0  0  0  0  0  0  0  0
    6.4325    3.5407    1.1440 H   0  0  0  0  0  0  0  0  0  0  0  0
    6.4582    1.9326    0.4123 H   0  0  0  0  0  0  0  0  0  0  0  0
    6.1046    3.3977   -0.5830 H   0  0  0  0  0  0  0  0  0  0  0  0
    2.9489    1.6710    2.1997 H   0  0  0  0  0  0  0  0  0  0  0  0
  1  2  1  0
  2  3  1  0
  3  4  1  0
  4  5  1  0
  3  6  1  0
  6  7  1  0
  7  8  1  0
  8  9  1  0
  9 10  1  0
 10 11  1  0
 11 12  1  0
 12 13  1  0
 13 14  2  0
 14 15  1  0
 15 16  2  0
 16 17  1  0
 17 18  1  0
 16 19  1  0
 19 20  1  0
 20 21  1  0
 19 22  2  0
 12 23  2  0
 23 24  1  0
 24 25  1  0
 25 26  3  0
 24 10  2  0
 22 13  1  0
  1 27  1  0
  1 28  1  0
  1 29  1  0
  2 30  1  0
  2 31  1  0
  3 32  1  0
  4 33  1  0
  4 34  1  0
  5 35  1  0
  5 36  1  0
  5 37  1  0
  6 38  1  0
  6 39  1  0
  7 40  1  0
  7 41  1  0
  8 42  1  0
  8 43  1  0
  9 44  1  0
 14 45  1  0
 15 46  1  0
 18 47  1  0
 18 48  1  0
 18 49  1  0
 21 50  1  0
 21 51  1  0
 21 52  1  0
 22 53  1  0
M  CHG  1   3   1
M  END
>  <docking_id>  (7) 
MAPK1_r07_cid863449

>  <target>  (7) 
MAPK1

>  <compound_id>  (7) 
863449

>  <admet_priority_rank>  (7) 
7

>  <priority_score>  (7) 
0.9063023673688522

>  <ensemble_calibrated_mean>  (7) 
0.0623809530266693

>  <admet_support_score>  (7) 
0.6708480555400158

>  <toxicity_burden>  (7) 
0.5734429412

>  <label>  (7) 
0

$$$$
MAPK1_r08_cid849356
     RDKit          3D

 31 32  0  0  0  0  0  0  0  0999 V2000
    0.6466    3.2388    1.2698 C   0  0  0  0  0  0  0  0  0  0  0  0
   -0.0002    2.7223   -0.0088 C   0  0  0  0  0  0  0  0  0  0  0  0
   -0.4349    1.3263    0.1235 N   0  0  0  0  0  0  0  0  0  0  0  0
    0.3651    0.2319   -0.1695 C   0  0  0  0  0  0  0  0  0  0  0  0
    2.0014    0.5203   -0.7348 S   0  0  0  0  0  0  0  0  0  0  0  0
    2.2711   -1.0003   -1.6949 C   0  0  0  0  0  0  0  0  0  0  0  0
    3.5955   -0.9185   -2.4257 C   0  0  0  0  0  0  0  0  0  0  0  0
    4.7101   -0.8580   -1.6343 N   0  0  0  0  0  0  0  0  0  0  0  0
    3.6986   -0.9471   -3.6479 O   0  0  0  0  0  0  0  0  0  0  0  0
   -0.0058   -0.9992   -0.0379 N   0  0  0  0  0  0  0  0  0  0  0  0
   -1.2971   -1.2651    0.4230 C   0  0  0  0  0  0  0  0  0  0  0  0
   -1.7123   -2.5938    0.5418 C   0  0  0  0  0  0  0  0  0  0  0  0
   -2.9950   -2.9001    1.0048 C   0  0  0  0  0  0  0  0  0  0  0  0
   -3.8742   -1.8760    1.3547 C   0  0  0  0  0  0  0  0  0  0  0  0
   -3.4699   -0.5466    1.2405 C   0  0  0  0  0  0  0  0  0  0  0  0
   -2.1828   -0.2525    0.7738 C   0  0  0  0  0  0  0  0  0  0  0  0
   -1.7188    1.1375    0.6375 C   0  0  0  0  0  0  0  0  0  0  0  0
   -2.4659    2.0509    0.9822 O   0  0  0  0  0  0  0  0  0  0  0  0
    1.5287    2.6503    1.5397 H   0  0  0  0  0  0  0  0  0  0  0  0
   -0.0525    3.1922    2.1112 H   0  0  0  0  0  0  0  0  0  0  0  0
    0.9569    4.2805    1.1429 H   0  0  0  0  0  0  0  0  0  0  0  0
    0.6880    2.8348   -0.8512 H   0  0  0  0  0  0  0  0  0  0  0  0
   -0.8671    3.3506   -0.2460 H   0  0  0  0  0  0  0  0  0  0  0  0
    2.2894   -1.8778   -1.0406 H   0  0  0  0  0  0  0  0  0  0  0  0
    1.4736   -1.1222   -2.4348 H   0  0  0  0  0  0  0  0  0  0  0  0
    5.5831   -0.6915   -2.1189 H   0  0  0  0  0  0  0  0  0  0  0  0
    4.6289   -0.4955   -0.6925 H   0  0  0  0  0  0  0  0  0  0  0  0
   -1.0295   -3.3957    0.2719 H   0  0  0  0  0  0  0  0  0  0  0  0
   -3.3057   -3.9385    1.0924 H   0  0  0  0  0  0  0  0  0  0  0  0
   -4.8723   -2.1127    1.7157 H   0  0  0  0  0  0  0  0  0  0  0  0
   -4.1531    0.2549    1.5126 H   0  0  0  0  0  0  0  0  0  0  0  0
  1  2  1  0
  2  3  1  0
  3  4  1  0
  4  5  1  0
  5  6  1  0
  6  7  1  0
  7  8  1  0
  7  9  2  0
  4 10  2  0
 10 11  1  0
 11 12  2  0
 12 13  1  0
 13 14  2  0
 14 15  1  0
 15 16  2  0
 16 17  1  0
 17 18  2  0
 17  3  1  0
 16 11  1  0
  1 19  1  0
  1 20  1  0
  1 21  1  0
  2 22  1  0
  2 23  1  0
  6 24  1  0
  6 25  1  0
  8 26  1  0
  8 27  1  0
 12 28  1  0
 13 29  1  0
 14 30  1  0
 15 31  1  0
M  END
>  <docking_id>  (8) 
MAPK1_r08_cid849356

>  <target>  (8) 
MAPK1

>  <compound_id>  (8) 
849356

>  <admet_priority_rank>  (8) 
8

>  <priority_score>  (8) 
0.8960814160973241

>  <ensemble_calibrated_mean>  (8) 
0.0623809530266693

>  <admet_support_score>  (8) 
0.7721126375809594

>  <toxicity_burden>  (8) 
0.4383810832

>  <label>  (8) 
0

$$$$
MAPK1_r09_cid4239983
     RDKit          3D

 42 44  0  0  0  0  0  0  0  0999 V2000
   -4.1193    3.1527   -0.7709 C   0  0  0  0  0  0  0  0  0  0  0  0
   -4.0874    2.1013    0.1856 O   0  0  0  0  0  0  0  0  0  0  0  0
   -3.4226    0.9438   -0.3353 C   0  0  0  0  0  0  0  0  0  0  0  0
   -3.3957   -0.1455    0.7420 C   0  0  0  0  0  0  0  0  0  0  0  0
   -2.8801   -1.4235    0.2383 N   0  0  0  0  0  0  0  0  0  0  0  0
   -1.4750   -1.5179    0.1088 C   0  0  0  0  0  0  0  0  0  0  0  0
   -0.7244   -0.4493    0.4164 N   0  0  0  0  0  0  0  0  0  0  0  0
    0.6088   -0.5606    0.2937 C   0  0  0  0  0  0  0  0  0  0  0  0
    1.4285    0.6194    0.6381 C   0  0  0  0  0  0  0  0  0  0  0  0
    0.8419    1.8162    1.0898 C   0  0  0  0  0  0  0  0  0  0  0  0
    1.6186    2.9313    1.4148 C   0  0  0  0  0  0  0  0  0  0  0  0
    3.0070    2.8785    1.2959 C   0  0  0  0  0  0  0  0  0  0  0  0
    3.6218    1.7102    0.8519 C   0  0  0  0  0  0  0  0  0  0  0  0
    4.9673    1.5218    0.6898 O   0  0  0  0  0  0  0  0  0  0  0  0
    5.8137    2.6192    1.0068 C   0  0  0  0  0  0  0  0  0  0  0  0
    2.8331    0.5985    0.5290 C   0  0  0  0  0  0  0  0  0  0  0  0
    1.2424   -1.6701   -0.1185 N   0  0  0  0  0  0  0  0  0  0  0  0
    0.4913   -2.7247   -0.4427 C   0  0  0  0  0  0  0  0  0  0  0  0
    1.1246   -3.8798   -0.8861 C   0  0  0  0  0  0  0  0  0  0  0  0
    0.4084   -5.0216   -1.2559 C   0  0  0  0  0  0  0  0  0  0  0  0
   -0.9775   -5.0161   -1.1883 C   0  0  0  0  0  0  0  0  0  0  0  0
   -1.6343   -3.8706   -0.7444 C   0  0  0  0  0  0  0  0  0  0  0  0
   -0.9057   -2.7156   -0.3585 C   0  0  0  0  0  0  0  0  0  0  0  0
   -4.6406    4.0053   -0.3276 H   0  0  0  0  0  0  0  0  0  0  0  0
   -4.6621    2.8389   -1.6678 H   0  0  0  0  0  0  0  0  0  0  0  0
   -3.1032    3.4628   -1.0333 H   0  0  0  0  0  0  0  0  0  0  0  0
   -3.9664    0.5826   -1.2165 H   0  0  0  0  0  0  0  0  0  0  0  0
   -2.4090    1.2191   -0.6448 H   0  0  0  0  0  0  0  0  0  0  0  0
   -4.4272   -0.3131    1.0777 H   0  0  0  0  0  0  0  0  0  0  0  0
   -2.8610    0.1943    1.6384 H   0  0  0  0  0  0  0  0  0  0  0  0
   -3.1866   -2.1914    0.8312 H   0  0  0  0  0  0  0  0  0  0  0  0
   -0.2402    1.8878    1.1936 H   0  0  0  0  0  0  0  0  0  0  0  0
    1.1364    3.8418    1.7619 H   0  0  0  0  0  0  0  0  0  0  0  0
    3.5767    3.7635    1.5575 H   0  0  0  0  0  0  0  0  0  0  0  0
    5.6070    3.4774    0.3588 H   0  0  0  0  0  0  0  0  0  0  0  0
    6.8470    2.3075    0.8261 H   0  0  0  0  0  0  0  0  0  0  0  0
    5.7284    2.8914    2.0640 H   0  0  0  0  0  0  0  0  0  0  0  0
    3.3334   -0.3054    0.1835 H   0  0  0  0  0  0  0  0  0  0  0  0
    2.2109   -3.8907   -0.9499 H   0  0  0  0  0  0  0  0  0  0  0  0
    0.9380   -5.9058   -1.6012 H   0  0  0  0  0  0  0  0  0  0  0  0
   -1.5456   -5.8944   -1.4838 H   0  0  0  0  0  0  0  0  0  0  0  0
   -2.7214   -3.8694   -0.7124 H   0  0  0  0  0  0  0  0  0  0  0  0
  1  2  1  0
  2  3  1  0
  3  4  1  0
  4  5  1  0
  5  6  1  0
  6  7  2  0
  7  8  1  0
  8  9  1  0
  9 10  2  0
 10 11  1  0
 11 12  2  0
 12 13  1  0
 13 14  1  0
 14 15  1  0
 13 16  2  0
  8 17  2  0
 17 18  1  0
 18 19  2  0
 19 20  1  0
 20 21  2  0
 21 22  1  0
 22 23  2  0
 23  6  1  0
 16  9  1  0
 23 18  1  0
  1 24  1  0
  1 25  1  0
  1 26  1  0
  3 27  1  0
  3 28  1  0
  4 29  1  0
  4 30  1  0
  5 31  1  0
 10 32  1  0
 11 33  1  0
 12 34  1  0
 15 35  1  0
 15 36  1  0
 15 37  1  0
 16 38  1  0
 19 39  1  0
 20 40  1  0
 21 41  1  0
 22 42  1  0
M  END
>  <docking_id>  (9) 
MAPK1_r09_cid4239983

>  <target>  (9) 
MAPK1

>  <compound_id>  (9) 
4239983

>  <admet_priority_rank>  (9) 
9

>  <priority_score>  (9) 
0.9108730664788588

>  <ensemble_calibrated_mean>  (9) 
0.0651225908661019

>  <admet_support_score>  (9) 
0.5923590058509451

>  <toxicity_burden>  (9) 
0.7204331373999999

>  <label>  (9) 
0

$$$$
MAPK1_r10_cid847290
     RDKit          3D

 31 33  0  0  0  0  0  0  0  0999 V2000
   -4.1424   -1.6809   -0.7331 C   0  0  0  0  0  0  0  0  0  0  0  0
   -3.2524   -0.5398   -0.6343 N   0  0  0  0  0  0  0  0  0  0  0  0
   -3.5224    0.6335   -1.3294 C   0  0  0  0  0  0  0  0  0  0  0  0
   -4.4977    0.7935   -2.0628 O   0  0  0  0  0  0  0  0  0  0  0  0
   -2.6251    1.6748   -1.1769 N   0  0  0  0  0  0  0  0  0  0  0  0
   -1.4684    1.6792   -0.4312 C   0  0  0  0  0  0  0  0  0  0  0  0
   -0.7151    2.6446   -0.4008 O   0  0  0  0  0  0  0  0  0  0  0  0
   -1.2589    0.4544    0.2599 C   0  0  0  0  0  0  0  0  0  0  0  0
   -2.1202   -0.6000    0.1502 C   0  0  0  0  0  0  0  0  0  0  0  0
   -1.7189   -1.6648    0.8892 N   0  0  0  0  0  0  0  0  0  0  0  0
   -0.6004   -1.2690    1.4657 C   0  0  0  0  0  0  0  0  0  0  0  0
    0.3781   -2.4144    2.6434 Br  0  0  0  0  0  0  0  0  0  0  0  0
   -0.2727    0.0223    1.1096 N   0  0  0  0  0  0  0  0  0  0  0  0
    0.8605    0.7951    1.6048 C   0  0  0  0  0  0  0  0  0  0  0  0
    2.1610    0.4128    0.9351 C   0  0  0  0  0  0  0  0  0  0  0  0
    2.2655    0.4810   -0.4686 C   0  0  0  0  0  0  0  0  0  0  0  0
    3.4514    0.1429   -1.1241 C   0  0  0  0  0  0  0  0  0  0  0  0
    4.5629   -0.2562   -0.3907 C   0  0  0  0  0  0  0  0  0  0  0  0
    4.4914   -0.3047    0.9996 C   0  0  0  0  0  0  0  0  0  0  0  0
    3.3048    0.0348    1.6600 C   0  0  0  0  0  0  0  0  0  0  0  0
    3.3309   -0.0151    3.3876 Cl  0  0  0  0  0  0  0  0  0  0  0  0
   -3.5874   -2.5329   -1.1380 H   0  0  0  0  0  0  0  0  0  0  0  0
   -4.5191   -1.9281    0.2644 H   0  0  0  0  0  0  0  0  0  0  0  0
   -4.9932   -1.4734   -1.3876 H   0  0  0  0  0  0  0  0  0  0  0  0
   -2.8326    2.5121   -1.6984 H   0  0  0  0  0  0  0  0  0  0  0  0
    0.8684    0.6549    2.6891 H   0  0  0  0  0  0  0  0  0  0  0  0
    0.6665    1.8594    1.4435 H   0  0  0  0  0  0  0  0  0  0  0  0
    1.4216    0.8087   -1.0733 H   0  0  0  0  0  0  0  0  0  0  0  0
    3.5067    0.1974   -2.2091 H   0  0  0  0  0  0  0  0  0  0  0  0
    5.4874   -0.5189   -0.8989 H   0  0  0  0  0  0  0  0  0  0  0  0
    5.3700   -0.6032    1.5670 H   0  0  0  0  0  0  0  0  0  0  0  0
  1  2  1  0
  2  3  1  0
  3  4  2  0
  3  5  1  0
  5  6  1  0
  6  7  2  0
  6  8  1  0
  8  9  2  0
  9 10  1  0
 10 11  2  0
 11 12  1  0
 11 13  1  0
 13 14  1  0
 14 15  1  0
 15 16  2  0
 16 17  1  0
 17 18  2  0
 18 19  1  0
 19 20  2  0
 20 21  1  0
  9  2  1  0
 20 15  1  0
 13  8  1  0
  1 22  1  0
  1 23  1  0
  1 24  1  0
  5 25  1  0
 14 26  1  0
 14 27  1  0
 16 28  1  0
 17 29  1  0
 18 30  1  0
 19 31  1  0
M  END
>  <docking_id>  (10) 
MAPK1_r10_cid847290

>  <target>  (10) 
MAPK1

>  <compound_id>  (10) 
847290

>  <admet_priority_rank>  (10) 
10

>  <priority_score>  (10) 
0.8966667725871951

>  <ensemble_calibrated_mean>  (10) 
0.0623809530266693

>  <admet_support_score>  (10) 
0.7457026539738336

>  <toxicity_burden>  (10) 
0.38022344312

>  <label>  (10) 
0

$$$$
MAPK1_r11_cid4240159
     RDKit          3D

 42 44  0  0  0  0  0  0  0  0999 V2000
    4.8143    1.5251    1.6776 C   0  0  0  0  0  0  0  0  0  0  0  0
    4.2226    1.2067    0.4248 O   0  0  0  0  0  0  0  0  0  0  0  0
    4.6630   -0.0749   -0.0506 C   0  0  0  0  0  0  0  0  0  0  0  0
    3.9556   -0.3829   -1.3769 C   0  0  0  0  0  0  0  0  0  0  0  0
    2.4954   -0.3750   -1.2235 N   0  0  0  0  0  0  0  0  0  0  0  0
    1.9206   -1.5237   -0.6388 C   0  0  0  0  0  0  0  0  0  0  0  0
    2.7102   -2.5801   -0.3742 N   0  0  0  0  0  0  0  0  0  0  0  0
    2.1201   -3.6483    0.1718 C   0  0  0  0  0  0  0  0  0  0  0  0
    0.8257   -3.7700    0.4816 N   0  0  0  0  0  0  0  0  0  0  0  0
    0.0451   -2.7241    0.1957 C   0  0  0  0  0  0  0  0  0  0  0  0
   -1.3097   -2.8088    0.4839 C   0  0  0  0  0  0  0  0  0  0  0  0
   -2.1934   -1.7612    0.2015 C   0  0  0  0  0  0  0  0  0  0  0  0
   -1.7358   -0.5814   -0.3904 C   0  0  0  0  0  0  0  0  0  0  0  0
   -2.6586    0.5216   -0.7171 C   0  0  0  0  0  0  0  0  0  0  0  0
   -2.8179    0.9031   -2.0639 C   0  0  0  0  0  0  0  0  0  0  0  0
   -3.6812    1.9368   -2.4255 C   0  0  0  0  0  0  0  0  0  0  0  0
   -4.4017    2.6085   -1.4451 C   0  0  0  0  0  0  0  0  0  0  0  0
   -4.2601    2.2506   -0.1025 C   0  0  0  0  0  0  0  0  0  0  0  0
   -3.3937    1.2149    0.2726 C   0  0  0  0  0  0  0  0  0  0  0  0
   -3.1912    0.8149    1.5709 O   0  0  0  0  0  0  0  0  0  0  0  0
   -3.8657    1.5303    2.5964 C   0  0  0  0  0  0  0  0  0  0  0  0
   -0.3673   -0.4903   -0.6821 C   0  0  0  0  0  0  0  0  0  0  0  0
    0.5342   -1.5477   -0.3865 C   0  0  0  0  0  0  0  0  0  0  0  0
    4.4554    2.5103    1.9871 H   0  0  0  0  0  0  0  0  0  0  0  0
    5.9042    1.5616    1.5885 H   0  0  0  0  0  0  0  0  0  0  0  0
    4.5216    0.7927    2.4362 H   0  0  0  0  0  0  0  0  0  0  0  0
    4.4412   -0.8371    0.7039 H   0  0  0  0  0  0  0  0  0  0  0  0
    5.7461   -0.0438   -0.2143 H   0  0  0  0  0  0  0  0  0  0  0  0
    4.1981    0.4143   -2.0896 H   0  0  0  0  0  0  0  0  0  0  0  0
    4.3191   -1.3186   -1.8171 H   0  0  0  0  0  0  0  0  0  0  0  0
    2.2297    0.4408   -0.6694 H   0  0  0  0  0  0  0  0  0  0  0  0
    2.7553   -4.5005    0.3871 H   0  0  0  0  0  0  0  0  0  0  0  0
   -1.6954   -3.7177    0.9402 H   0  0  0  0  0  0  0  0  0  0  0  0
   -3.2476   -1.8763    0.4458 H   0  0  0  0  0  0  0  0  0  0  0  0
   -2.2678    0.3809   -2.8452 H   0  0  0  0  0  0  0  0  0  0  0  0
   -3.7908    2.2128   -3.4710 H   0  0  0  0  0  0  0  0  0  0  0  0
   -5.0766    3.4140   -1.7236 H   0  0  0  0  0  0  0  0  0  0  0  0
   -4.8416    2.8025    0.6282 H   0  0  0  0  0  0  0  0  0  0  0  0
   -3.5692    1.0966    3.5564 H   0  0  0  0  0  0  0  0  0  0  0  0
   -4.9512    1.4214    2.5045 H   0  0  0  0  0  0  0  0  0  0  0  0
   -3.5709    2.5849    2.6036 H   0  0  0  0  0  0  0  0  0  0  0  0
    0.0096    0.4170   -1.1512 H   0  0  0  0  0  0  0  0  0  0  0  0
  1  2  1  0
  2  3  1  0
  3  4  1  0
  4  5  1  0
  5  6  1  0
  6  7  2  0
  7  8  1  0
  8  9  2  0
  9 10  1  0
 10 11  2  0
 11 12  1  0
 12 13  2  0
 13 14  1  0
 14 15  2  0
 15 16  1  0
 16 17  2  0
 17 18  1  0
 18 19  2  0
 19 20  1  0
 20 21  1  0
 13 22  1  0
 22 23  2  0
 23  6  1  0
 23 10  1  0
 19 14  1  0
  1 24  1  0
  1 25  1  0
  1 26  1  0
  3 27  1  0
  3 28  1  0
  4 29  1  0
  4 30  1  0
  5 31  1  0
  8 32  1  0
 11 33  1  0
 12 34  1  0
 15 35  1  0
 16 36  1  0
 17 37  1  0
 18 38  1  0
 21 39  1  0
 21 40  1  0
 21 41  1  0
 22 42  1  0
M  END
>  <docking_id>  (11) 
MAPK1_r11_cid4240159

>  <target>  (11) 
MAPK1

>  <compound_id>  (11) 
4240159

>  <admet_priority_rank>  (11) 
11

>  <priority_score>  (11) 
0.905642789545706

>  <ensemble_calibrated_mean>  (11) 
0.0623809530266693

>  <admet_support_score>  (11) 
0.6447629468090226

>  <toxicity_burden>  (11) 
0.683148087

>  <label>  (11) 
0

$$$$
MAPK1_r12_cid4240389
     RDKit          3D

 39 41  0  0  0  0  0  0  0  0999 V2000
   -5.7371   -1.5011   -1.1741 C   0  0  0  0  0  0  0  0  0  0  0  0
   -4.8727   -0.7571   -0.1999 C   0  0  0  0  0  0  0  0  0  0  0  0
   -5.4267   -0.1932    0.9543 C   0  0  0  0  0  0  0  0  0  0  0  0
   -4.6167    0.4746    1.8730 C   0  0  0  0  0  0  0  0  0  0  0  0
   -3.2427    0.5745    1.6534 C   0  0  0  0  0  0  0  0  0  0  0  0
   -2.6638   -0.0014    0.5149 C   0  0  0  0  0  0  0  0  0  0  0  0
   -1.1758    0.1016    0.2666 C   0  0  0  0  0  0  0  0  0  0  0  0
   -0.9466    1.0051   -0.8545 N   0  0  0  0  0  0  0  0  0  0  0  0
    0.4032    1.2600   -1.1411 C   0  0  0  0  0  0  0  0  0  0  0  0
    0.6938    2.1540   -2.1517 C   0  0  0  0  0  0  0  0  0  0  0  0
    2.0226    2.3567   -2.4350 C   0  0  0  0  0  0  0  0  0  0  0  0
    3.0196    1.7326   -1.7887 N   0  0  0  0  0  0  0  0  0  0  0  0
    2.6512    0.8624   -0.8309 C   0  0  0  0  0  0  0  0  0  0  0  0
    3.7168    0.1428   -0.1019 C   0  0  0  0  0  0  0  0  0  0  0  0
    5.0797    0.3622   -0.3838 C   0  0  0  0  0  0  0  0  0  0  0  0
    6.0910   -0.3157    0.3042 C   0  0  0  0  0  0  0  0  0  0  0  0
    5.7617   -1.2350    1.2968 C   0  0  0  0  0  0  0  0  0  0  0  0
    4.4208   -1.4770    1.6013 C   0  0  0  0  0  0  0  0  0  0  0  0
    4.0749   -2.4211    2.6231 C   0  0  0  0  0  0  0  0  0  0  0  0
    3.7978   -3.1844    3.4525 N   0  0  0  0  0  0  0  0  0  0  0  0
    3.4128   -0.7939    0.9069 C   0  0  0  0  0  0  0  0  0  0  0  0
    1.3737    0.6027   -0.4869 N   0  0  0  0  0  0  0  0  0  0  0  0
   -3.4899   -0.6662   -0.4059 C   0  0  0  0  0  0  0  0  0  0  0  0
   -6.7529   -1.0923   -1.1870 H   0  0  0  0  0  0  0  0  0  0  0  0
   -5.7852   -2.5593   -0.8992 H   0  0  0  0  0  0  0  0  0  0  0  0
   -5.3407   -1.4166   -2.1914 H   0  0  0  0  0  0  0  0  0  0  0  0
   -6.4950   -0.2696    1.1441 H   0  0  0  0  0  0  0  0  0  0  0  0
   -5.0577    0.9145    2.7638 H   0  0  0  0  0  0  0  0  0  0  0  0
   -2.6271    1.0987    2.3809 H   0  0  0  0  0  0  0  0  0  0  0  0
   -0.7849   -0.9014    0.0525 H   0  0  0  0  0  0  0  0  0  0  0  0
   -0.6784    0.4687    1.1737 H   0  0  0  0  0  0  0  0  0  0  0  0
   -1.4531    1.8771   -0.7329 H   0  0  0  0  0  0  0  0  0  0  0  0
   -0.0828    2.6629   -2.7062 H   0  0  0  0  0  0  0  0  0  0  0  0
    2.3309    3.0443   -3.2168 H   0  0  0  0  0  0  0  0  0  0  0  0
    5.3654    1.0763   -1.1563 H   0  0  0  0  0  0  0  0  0  0  0  0
    7.1335   -0.1230    0.0614 H   0  0  0  0  0  0  0  0  0  0  0  0
    6.5544   -1.7585    1.8278 H   0  0  0  0  0  0  0  0  0  0  0  0
    2.3700   -0.9947    1.1543 H   0  0  0  0  0  0  0  0  0  0  0  0
   -3.0437   -1.1103   -1.2949 H   0  0  0  0  0  0  0  0  0  0  0  0
  1  2  1  0
  2  3  2  0
  3  4  1  0
  4  5  2  0
  5  6  1  0
  6  7  1  0
  7  8  1  0
  8  9  1  0
  9 10  2  0
 10 11  1  0
 11 12  2  0
 12 13  1  0
 13 14  1  0
 14 15  2  0
 15 16  1  0
 16 17  2  0
 17 18  1  0
 18 19  1  0
 19 20  3  0
 18 21  2  0
 13 22  2  0
  6 23  2  0
 23  2  1  0
 22  9  1  0
 21 14  1  0
  1 24  1  0
  1 25  1  0
  1 26  1  0
  3 27  1  0
  4 28  1  0
  5 29  1  0
  7 30  1  0
  7 31  1  0
  8 32  1  0
 10 33  1  0
 11 34  1  0
 15 35  1  0
 16 36  1  0
 17 37  1  0
 21 38  1  0
 23 39  1  0
M  END
>  <docking_id>  (12) 
MAPK1_r12_cid4240389

>  <target>  (12) 
MAPK1

>  <compound_id>  (12) 
4240389

>  <admet_priority_rank>  (12) 
12

>  <priority_score>  (12) 
0.9113191167746036

>  <ensemble_calibrated_mean>  (12) 
0.0651282057739221

>  <admet_support_score>  (12) 
0.565576815172496

>  <toxicity_burden>  (12) 
0.6763425208

>  <label>  (12) 
0

$$$$
MAPK1_r13_cid861370
     RDKit          3D

 41 44  0  0  0  0  0  0  0  0999 V2000
   -5.4830   -0.9887    2.7338 C   0  0  0  0  0  0  0  0  0  0  0  0
   -4.4765   -0.1188    2.2365 O   0  0  0  0  0  0  0  0  0  0  0  0
   -3.5849   -0.6320    1.3278 C   0  0  0  0  0  0  0  0  0  0  0  0
   -3.5694   -1.9612    0.8997 C   0  0  0  0  0  0  0  0  0  0  0  0
   -2.6144   -2.3934   -0.0260 C   0  0  0  0  0  0  0  0  0  0  0  0
   -1.6527   -1.5135   -0.5392 C   0  0  0  0  0  0  0  0  0  0  0  0
   -0.6699   -2.0209   -1.5055 C   0  0  0  0  0  0  0  0  0  0  0  0
   -0.8570   -3.0638   -2.3045 N   0  0  0  0  0  0  0  0  0  0  0  0
    0.2676   -3.2435   -3.0743 N   0  0  0  0  0  0  0  0  0  0  0  0
    1.1273   -2.3298   -2.7074 C   0  0  0  0  0  0  0  0  0  0  0  0
    0.6203   -1.5409   -1.7031 N   0  0  0  0  0  0  0  0  0  0  0  0
    1.2134   -0.4809   -1.0620 N   0  0  0  0  0  0  0  0  0  0  0  0
    2.5022   -0.3406   -1.2043 C   0  0  0  0  0  0  0  0  0  0  0  0
    3.1327    0.8533   -0.5698 C   0  0  0  0  0  0  0  0  0  0  0  0
    2.6681    1.2756    0.6823 C   0  0  0  0  0  0  0  0  0  0  0  0
    3.2339    2.3931    1.2969 C   0  0  0  0  0  0  0  0  0  0  0  0
    4.2555    3.0958    0.6593 C   0  0  0  0  0  0  0  0  0  0  0  0
    4.7080    2.6879   -0.5957 C   0  0  0  0  0  0  0  0  0  0  0  0
    4.1459    1.5695   -1.2153 C   0  0  0  0  0  0  0  0  0  0  0  0
    3.4346   -1.3527   -1.8594 C   0  0  0  0  0  0  0  0  0  0  0  0
    2.6997   -2.0493   -3.3518 S   0  0  0  0  0  0  0  0  0  0  0  0
   -1.6866   -0.1750   -0.1205 C   0  0  0  0  0  0  0  0  0  0  0  0
   -2.6346    0.2705    0.8122 C   0  0  0  0  0  0  0  0  0  0  0  0
   -2.7163    1.5616    1.2757 O   0  0  0  0  0  0  0  0  0  0  0  0
   -1.7643    2.4995    0.7942 C   0  0  0  0  0  0  0  0  0  0  0  0
   -6.1130   -0.4137    3.4194 H   0  0  0  0  0  0  0  0  0  0  0  0
   -5.0443   -1.8159    3.3013 H   0  0  0  0  0  0  0  0  0  0  0  0
   -6.1229   -1.3575    1.9253 H   0  0  0  0  0  0  0  0  0  0  0  0
   -4.2844   -2.6907    1.2646 H   0  0  0  0  0  0  0  0  0  0  0  0
   -2.6255   -3.4352   -0.3457 H   0  0  0  0  0  0  0  0  0  0  0  0
    1.8685    0.7369    1.1869 H   0  0  0  0  0  0  0  0  0  0  0  0
    2.8761    2.7173    2.2714 H   0  0  0  0  0  0  0  0  0  0  0  0
    4.6939    3.9689    1.1376 H   0  0  0  0  0  0  0  0  0  0  0  0
    5.4940    3.2497   -1.0957 H   0  0  0  0  0  0  0  0  0  0  0  0
    4.4935    1.2946   -2.2073 H   0  0  0  0  0  0  0  0  0  0  0  0
    4.4071   -0.9277   -2.1122 H   0  0  0  0  0  0  0  0  0  0  0  0
    3.6072   -2.1593   -1.1377 H   0  0  0  0  0  0  0  0  0  0  0  0
   -0.9728    0.5237   -0.5414 H   0  0  0  0  0  0  0  0  0  0  0  0
   -1.9680    3.4601    1.2771 H   0  0  0  0  0  0  0  0  0  0  0  0
   -0.7451    2.2030    1.0633 H   0  0  0  0  0  0  0  0  0  0  0  0
   -1.8642    2.6441   -0.2865 H   0  0  0  0  0  0  0  0  0  0  0  0
  1  2  1  0
  2  3  1  0
  3  4  2  0
  4  5  1  0
  5  6  2  0
  6  7  1  0
  7  8  2  0
  8  9  1  0
  9 10  2  0
 10 11  1  0
 11 12  1  0
 12 13  2  0
 13 14  1  0
 14 15  2  0
 15 16  1  0
 16 17  2  0
 17 18  1  0
 18 19  2  0
 13 20  1  0
 20 21  1  0
  6 22  1  0
 22 23  2  0
 23 24  1  0
 24 25  1  0
 23  3  1  0
 11  7  1  0
 19 14  1  0
 21 10  1  0
  1 26  1  0
  1 27  1  0
  1 28  1  0
  4 29  1  0
  5 30  1  0
 15 31  1  0
 16 32  1  0
 17 33  1  0
 18 34  1  0
 19 35  1  0
 20 36  1  0
 20 37  1  0
 22 38  1  0
 25 39  1  0
 25 40  1  0
 25 41  1  0
M  END
>  <docking_id>  (13) 
MAPK1_r13_cid861370

>  <target>  (13) 
MAPK1

>  <compound_id>  (13) 
861370

>  <admet_priority_rank>  (13) 
13

>  <priority_score>  (13) 
0.9039560686863746

>  <ensemble_calibrated_mean>  (13) 
0.0623809530266693

>  <admet_support_score>  (13) 
0.6458950262152447

>  <toxicity_burden>  (13) 
0.5183108430000001

>  <label>  (13) 
0

$$$$
MAPK1_r14_cid4239728
     RDKit          3D

 42 45  0  0  0  0  0  0  0  0999 V2000
   -3.0786    5.4710   -0.9149 N   0  0  0  0  0  0  0  0  0  0  0  0
   -3.3818    4.3534   -0.8356 C   0  0  0  0  0  0  0  0  0  0  0  0
   -3.7593    2.9741   -0.7348 C   0  0  0  0  0  0  0  0  0  0  0  0
   -5.1028    2.6072   -0.8306 C   0  0  0  0  0  0  0  0  0  0  0  0
   -5.4628    1.2659   -0.7304 C   0  0  0  0  0  0  0  0  0  0  0  0
   -4.4795    0.2911   -0.5338 C   0  0  0  0  0  0  0  0  0  0  0  0
   -3.1146    0.6260   -0.4321 C   0  0  0  0  0  0  0  0  0  0  0  0
   -2.0786   -0.4078   -0.2233 C   0  0  0  0  0  0  0  0  0  0  0  0
   -0.8036    0.0017   -0.1216 N   0  0  0  0  0  0  0  0  0  0  0  0
    0.1393   -0.9350    0.0755 C   0  0  0  0  0  0  0  0  0  0  0  0
    1.4852   -0.5289    0.1840 N   0  0  0  0  0  0  0  0  0  0  0  0
    1.7057    0.9111    0.1346 C   0  0  0  0  0  0  0  0  0  0  0  0
    3.1784    1.1842    0.3407 C   0  0  0  0  0  0  0  0  0  0  0  0
    3.6426    1.7594    1.5324 C   0  0  0  0  0  0  0  0  0  0  0  0
    5.0055    1.9991    1.7180 C   0  0  0  0  0  0  0  0  0  0  0  0
    5.9169    1.6630    0.7184 C   0  0  0  0  0  0  0  0  0  0  0  0
    5.4684    1.0850   -0.4676 C   0  0  0  0  0  0  0  0  0  0  0  0
    4.1066    0.8450   -0.6555 C   0  0  0  0  0  0  0  0  0  0  0  0
   -0.1745   -2.3041    0.1410 C   0  0  0  0  0  0  0  0  0  0  0  0
    0.7698   -3.3517    0.2979 C   0  0  0  0  0  0  0  0  0  0  0  0
    0.3599   -4.6814    0.3619 C   0  0  0  0  0  0  0  0  0  0  0  0
   -0.9915   -4.9812    0.2663 C   0  0  0  0  0  0  0  0  0  0  0  0
   -1.9199   -3.9498    0.1003 C   0  0  0  0  0  0  0  0  0  0  0  0
   -1.5345   -2.6160    0.0310 C   0  0  0  0  0  0  0  0  0  0  0  0
   -2.4778   -1.6869   -0.1413 N   0  0  0  0  0  0  0  0  0  0  0  0
   -2.7793    1.9912   -0.5383 C   0  0  0  0  0  0  0  0  0  0  0  0
   -5.8740    3.3598   -0.9834 H   0  0  0  0  0  0  0  0  0  0  0  0
   -6.5076    0.9731   -0.8049 H   0  0  0  0  0  0  0  0  0  0  0  0
   -4.7895   -0.7512   -0.4592 H   0  0  0  0  0  0  0  0  0  0  0  0
    1.8914   -0.9281    1.0254 H   0  0  0  0  0  0  0  0  0  0  0  0
    1.4042    1.3248   -0.8364 H   0  0  0  0  0  0  0  0  0  0  0  0
    1.1267    1.4244    0.9132 H   0  0  0  0  0  0  0  0  0  0  0  0
    2.9459    2.0274    2.3236 H   0  0  0  0  0  0  0  0  0  0  0  0
    5.3568    2.4493    2.6429 H   0  0  0  0  0  0  0  0  0  0  0  0
    6.9775    1.8509    0.8639 H   0  0  0  0  0  0  0  0  0  0  0  0
    6.1784    0.8194   -1.2465 H   0  0  0  0  0  0  0  0  0  0  0  0
    3.7651    0.3855   -1.5812 H   0  0  0  0  0  0  0  0  0  0  0  0
    1.8330   -3.1285    0.3549 H   0  0  0  0  0  0  0  0  0  0  0  0
    1.0925   -5.4758    0.4796 H   0  0  0  0  0  0  0  0  0  0  0  0
   -1.3291   -6.0134    0.3126 H   0  0  0  0  0  0  0  0  0  0  0  0
   -2.9764   -4.1963    0.0179 H   0  0  0  0  0  0  0  0  0  0  0  0
   -1.7339    2.2931   -0.4675 H   0  0  0  0  0  0  0  0  0  0  0  0
  1  2  3  0
  2  3  1  0
  3  4  2  0
  4  5  1  0
  5  6  2  0
  6  7  1  0
  7  8  1  0
  8  9  2  0
  9 10  1  0
 10 11  1  0
 11 12  1  0
 12 13  1  0
 13 14  2  0
 14 15  1  0
 15 16  2  0
 16 17  1  0
 17 18  2  0
 10 19  2  0
 19 20  1  0
 20 21  2  0
 21 22  1  0
 22 23  2  0
 23 24  1  0
 24 25  2  0
  7 26  2  0
 26  3  1  0
 25  8  1  0
 18 13  1  0
 24 19  1  0
  4 27  1  0
  5 28  1  0
  6 29  1  0
 11 30  1  0
 12 31  1  0
 12 32  1  0
 14 33  1  0
 15 34  1  0
 16 35  1  0
 17 36  1  0
 18 37  1  0
 20 38  1  0
 21 39  1  0
 22 40  1  0
 23 41  1  0
 26 42  1  0
M  END
>  <docking_id>  (14) 
MAPK1_r14_cid4239728

>  <target>  (14) 
MAPK1

>  <compound_id>  (14) 
4239728

>  <admet_priority_rank>  (14) 
14

>  <priority_score>  (14) 
0.9140839106648432

>  <ensemble_calibrated_mean>  (14) 
0.0651282057739221

>  <admet_support_score>  (14) 
0.5261344625687426

>  <toxicity_burden>  (14) 
0.7162068954

>  <label>  (14) 
1

$$$$
MAPK1_r15_cid4240338
     RDKit          3D

 45 48  0  0  0  0  0  0  0  0999 V2000
    3.9218    1.0326    2.2108 C   0  0  0  0  0  0  0  0  0  0  0  0
    3.0667    0.5053    1.2033 O   0  0  0  0  0  0  0  0  0  0  0  0
    3.5561   -0.5377    0.4537 C   0  0  0  0  0  0  0  0  0  0  0  0
    4.6529   -1.3211    0.8373 C   0  0  0  0  0  0  0  0  0  0  0  0
    5.0991   -2.3646    0.0242 C   0  0  0  0  0  0  0  0  0  0  0  0
    4.4528   -2.6388   -1.1751 C   0  0  0  0  0  0  0  0  0  0  0  0
    3.3538   -1.8717   -1.5615 C   0  0  0  0  0  0  0  0  0  0  0  0
    2.8818   -0.8148   -0.7583 C   0  0  0  0  0  0  0  0  0  0  0  0
    1.7143   -0.0349   -1.2106 C   0  0  0  0  0  0  0  0  0  0  0  0
    1.7354    0.6633   -2.4216 C   0  0  0  0  0  0  0  0  0  0  0  0
    0.6218    1.3995   -2.8432 C   0  0  0  0  0  0  0  0  0  0  0  0
   -0.5413    1.4635   -2.0893 C   0  0  0  0  0  0  0  0  0  0  0  0
   -1.5697    2.1886   -2.5413 N   0  0  0  0  0  0  0  0  0  0  0  0
   -2.6670    2.2323   -1.7842 C   0  0  0  0  0  0  0  0  0  0  0  0
   -2.8616    1.5842   -0.6220 N   0  0  0  0  0  0  0  0  0  0  0  0
   -1.8028    0.8702   -0.1699 C   0  0  0  0  0  0  0  0  0  0  0  0
   -1.9683    0.1667    1.0473 N   0  0  0  0  0  0  0  0  0  0  0  0
   -2.6719    0.9456    2.0947 C   0  0  0  0  0  0  0  0  0  0  0  0
   -4.1948    0.6781    2.1353 C   0  0  0  0  0  0  0  0  0  0  0  0
   -4.6637    0.1405    0.8183 N   0  0  0  0  0  0  0  0  0  0  0  0
   -4.0247   -1.1701    0.4470 C   0  0  0  0  0  0  0  0  0  0  0  0
   -2.5206   -1.1880    0.8184 C   0  0  0  0  0  0  0  0  0  0  0  0
   -0.5919    0.7644   -0.8796 C   0  0  0  0  0  0  0  0  0  0  0  0
    0.5399    0.0266   -0.4483 C   0  0  0  0  0  0  0  0  0  0  0  0
    4.0085    0.3364    3.0511 H   0  0  0  0  0  0  0  0  0  0  0  0
    4.9061    1.2927    1.8070 H   0  0  0  0  0  0  0  0  0  0  0  0
    3.4638    1.9519    2.5883 H   0  0  0  0  0  0  0  0  0  0  0  0
    5.1819   -1.1471    1.7688 H   0  0  0  0  0  0  0  0  0  0  0  0
    5.9544   -2.9630    0.3295 H   0  0  0  0  0  0  0  0  0  0  0  0
    4.8021   -3.4497   -1.8097 H   0  0  0  0  0  0  0  0  0  0  0  0
    2.8577   -2.1079   -2.5012 H   0  0  0  0  0  0  0  0  0  0  0  0
    2.6294    0.6566   -3.0435 H   0  0  0  0  0  0  0  0  0  0  0  0
    0.6736    1.9430   -3.7848 H   0  0  0  0  0  0  0  0  0  0  0  0
   -3.4825    2.8458   -2.1551 H   0  0  0  0  0  0  0  0  0  0  0  0
   -2.4800    2.0210    1.9832 H   0  0  0  0  0  0  0  0  0  0  0  0
   -2.2475    0.6734    3.0687 H   0  0  0  0  0  0  0  0  0  0  0  0
   -4.7548    1.5966    2.3344 H   0  0  0  0  0  0  0  0  0  0  0  0
   -4.4526   -0.0695    2.8927 H   0  0  0  0  0  0  0  0  0  0  0  0
   -5.6848    0.1165    0.7349 H   0  0  0  0  0  0  0  0  0  0  0  0
   -4.3105    0.8222    0.1162 H   0  0  0  0  0  0  0  0  0  0  0  0
   -4.5728   -1.9639    0.9638 H   0  0  0  0  0  0  0  0  0  0  0  0
   -4.1669   -1.2819   -0.6324 H   0  0  0  0  0  0  0  0  0  0  0  0
   -2.4006   -1.7557    1.7501 H   0  0  0  0  0  0  0  0  0  0  0  0
   -1.9504   -1.7400    0.0609 H   0  0  0  0  0  0  0  0  0  0  0  0
    0.5080   -0.4969    0.5064 H   0  0  0  0  0  0  0  0  0  0  0  0
  1  2  1  0
  2  3  1  0
  3  4  2  0
  4  5  1  0
  5  6  2  0
  6  7  1  0
  7  8  2  0
  8  9  1  0
  9 10  2  0
 10 11  1  0
 11 12  2  0
 12 13  1  0
 13 14  2  0
 14 15  1  0
 15 16  2  0
 16 17  1  0
 17 18  1  0
 18 19  1  0
 19 20  1  0
 20 21  1  0
 21 22  1  0
 16 23  1  0
 23 24  2  0
  8  3  1  0
 24  9  1  0
 23 12  1  0
 22 17  1  0
  1 25  1  0
  1 26  1  0
  1 27  1  0
  4 28  1  0
  5 29  1  0
  6 30  1  0
  7 31  1  0
 10 32  1  0
 11 33  1  0
 14 34  1  0
 18 35  1  0
 18 36  1  0
 19 37  1  0
 19 38  1  0
 20 39  1  0
 20 40  1  0
 21 41  1  0
 21 42  1  0
 22 43  1  0
 22 44  1  0
 24 45  1  0
M  CHG  1  20   1
M  END
>  <docking_id>  (15) 
MAPK1_r15_cid4240338

>  <target>  (15) 
MAPK1

>  <compound_id>  (15) 
4240338

>  <admet_priority_rank>  (15) 
15

>  <priority_score>  (15) 
0.897392084146968

>  <ensemble_calibrated_mean>  (15) 
0.0623809530266693

>  <admet_support_score>  (15) 
0.7092673687033113

>  <toxicity_burden>  (15) 
0.44767214328

>  <label>  (15) 
0

$$$$
MAPK1_r16_cid7972034
     RDKit          3D

 54 56  0  0  0  0  0  0  0  0999 V2000
    7.1807    1.3527    1.4582 C   0  0  0  0  0  0  0  0  0  0  0  0
    6.3588    0.2304    1.1619 O   0  0  0  0  0  0  0  0  0  0  0  0
    5.0103    0.3376    1.3571 C   0  0  0  0  0  0  0  0  0  0  0  0
    4.3750    1.5375    1.7071 C   0  0  0  0  0  0  0  0  0  0  0  0
    2.9828    1.6099    1.8385 C   0  0  0  0  0  0  0  0  0  0  0  0
    2.1914    0.4787    1.6208 C   0  0  0  0  0  0  0  0  0  0  0  0
    0.6925    0.5491    1.7067 C   0  0  0  0  0  0  0  0  0  0  0  0
    0.0650    1.2061    0.4997 N   0  0  0  0  0  0  0  0  0  0  0  0
   -1.3936    1.5954    0.7233 C   0  0  0  0  0  0  0  0  0  0  0  0
   -2.3117    0.3582    0.7478 C   0  0  0  0  0  0  0  0  0  0  0  0
   -2.1295   -0.4772   -0.4552 N   0  0  0  0  0  0  0  0  0  0  0  0
   -3.0994   -0.2993   -1.4504 C   0  0  0  0  0  0  0  0  0  0  0  0
   -2.7941    0.3256   -2.6706 C   0  0  0  0  0  0  0  0  0  0  0  0
   -3.7725    0.5616   -3.6360 C   0  0  0  0  0  0  0  0  0  0  0  0
   -5.0861    0.1795   -3.4019 C   0  0  0  0  0  0  0  0  0  0  0  0
   -5.4357   -0.4628   -2.2087 C   0  0  0  0  0  0  0  0  0  0  0  0
   -6.8689   -0.8871   -2.0169 C   0  0  0  0  0  0  0  0  0  0  0  0
   -4.4345   -0.7403   -1.2431 C   0  0  0  0  0  0  0  0  0  0  0  0
   -4.8104   -1.5220   -0.0033 C   0  0  0  0  0  0  0  0  0  0  0  0
   -0.7441   -0.8114   -0.8292 C   0  0  0  0  0  0  0  0  0  0  0  0
    0.1959    0.4112   -0.7992 C   0  0  0  0  0  0  0  0  0  0  0  0
    2.8261   -0.7230    1.2850 C   0  0  0  0  0  0  0  0  0  0  0  0
    4.2214   -0.8072    1.1591 C   0  0  0  0  0  0  0  0  0  0  0  0
    4.6312   -2.0650    0.8014 O   0  0  0  0  0  0  0  0  0  0  0  0
    5.9702   -2.4383    1.1066 C   0  0  0  0  0  0  0  0  0  0  0  0
    8.2217    1.0550    1.2998 H   0  0  0  0  0  0  0  0  0  0  0  0
    6.9661    2.1856    0.7809 H   0  0  0  0  0  0  0  0  0  0  0  0
    7.0763    1.6546    2.5055 H   0  0  0  0  0  0  0  0  0  0  0  0
    4.9432    2.4481    1.8774 H   0  0  0  0  0  0  0  0  0  0  0  0
    2.5392    2.5641    2.1178 H   0  0  0  0  0  0  0  0  0  0  0  0
    0.4129    1.1476    2.5821 H   0  0  0  0  0  0  0  0  0  0  0  0
    0.2490   -0.4441    1.8309 H   0  0  0  0  0  0  0  0  0  0  0  0
    0.5840    2.0785    0.3506 H   0  0  0  0  0  0  0  0  0  0  0  0
   -1.4460    2.1581    1.6608 H   0  0  0  0  0  0  0  0  0  0  0  0
   -1.6595    2.2659   -0.1016 H   0  0  0  0  0  0  0  0  0  0  0  0
   -3.3468    0.6979    0.8708 H   0  0  0  0  0  0  0  0  0  0  0  0
   -2.0839   -0.2546    1.6277 H   0  0  0  0  0  0  0  0  0  0  0  0
   -1.7905    0.6581   -2.9043 H   0  0  0  0  0  0  0  0  0  0  0  0
   -3.5117    1.0478   -4.5730 H   0  0  0  0  0  0  0  0  0  0  0  0
   -5.8382    0.3742   -4.1645 H   0  0  0  0  0  0  0  0  0  0  0  0
   -7.5313   -0.3931   -2.7361 H   0  0  0  0  0  0  0  0  0  0  0  0
   -7.2241   -0.6122   -1.0186 H   0  0  0  0  0  0  0  0  0  0  0  0
   -6.9638   -1.9684   -2.1560 H   0  0  0  0  0  0  0  0  0  0  0  0
   -3.9429   -1.9945    0.4673 H   0  0  0  0  0  0  0  0  0  0  0  0
   -5.2905   -0.8617    0.7254 H   0  0  0  0  0  0  0  0  0  0  0  0
   -5.4933   -2.3418   -0.2491 H   0  0  0  0  0  0  0  0  0  0  0  0
   -0.3795   -1.5578   -0.1134 H   0  0  0  0  0  0  0  0  0  0  0  0
   -0.6968   -1.2981   -1.8110 H   0  0  0  0  0  0  0  0  0  0  0  0
   -0.0480    1.1188   -1.5975 H   0  0  0  0  0  0  0  0  0  0  0  0
    1.2422    0.1209   -0.9247 H   0  0  0  0  0  0  0  0  0  0  0  0
    2.2458   -1.6302    1.1179 H   0  0  0  0  0  0  0  0  0  0  0  0
    6.6616   -2.0453    0.3555 H   0  0  0  0  0  0  0  0  0  0  0  0
    6.2579   -2.1427    2.1211 H   0  0  0  0  0  0  0  0  0  0  0  0
    6.0259   -3.5304    1.0577 H   0  0  0  0  0  0  0  0  0  0  0  0
  1  2  1  0
  2  3  1  0
  3  4  2  0
  4  5  1  0
  5  6  2  0
  6  7  1  0
  7  8  1  0
  8  9  1  0
  9 10  1  0
 10 11  1  0
 11 12  1  0
 12 13  2  0
 13 14  1  0
 14 15  2  0
 15 16  1  0
 16 17  1  0
 16 18  2  0
 18 19  1  0
 11 20  1  0
 20 21  1  0
  6 22  1  0
 22 23  2  0
 23 24  1  0
 24 25  1  0
 23  3  1  0
 21  8  1  0
 18 12  1  0
  1 26  1  0
  1 27  1  0
  1 28  1  0
  4 29  1  0
  5 30  1  0
  7 31  1  0
  7 32  1  0
  8 33  1  0
  9 34  1  0
  9 35  1  0
 10 36  1  0
 10 37  1  0
 13 38  1  0
 14 39  1  0
 15 40  1  0
 17 41  1  0
 17 42  1  0
 17 43  1  0
 19 44  1  0
 19 45  1  0
 19 46  1  0
 20 47  1  0
 20 48  1  0
 21 49  1  0
 21 50  1  0
 22 51  1  0
 25 52  1  0
 25 53  1  0
 25 54  1  0
M  CHG  1   8   1
M  END
>  <docking_id>  (16) 
MAPK1_r16_cid7972034

>  <target>  (16) 
MAPK1

>  <compound_id>  (16) 
7972034

>  <admet_priority_rank>  (16) 
16

>  <priority_score>  (16) 
0.9025568476895643

>  <ensemble_calibrated_mean>  (16) 
0.0623809530266693

>  <admet_support_score>  (16) 
0.6409420231777088

>  <toxicity_burden>  (16) 
0.32271925094116

>  <label>  (16) 
0

$$$$
MAPK1_r17_cid4238183
     RDKit          3D

 49 52  0  0  0  0  0  0  0  0999 V2000
    5.0252    4.1906   -0.6159 C   0  0  0  0  0  0  0  0  0  0  0  0
    3.9129    3.3057   -0.5835 O   0  0  0  0  0  0  0  0  0  0  0  0
    4.1874    1.9653   -0.5985 C   0  0  0  0  0  0  0  0  0  0  0  0
    5.4552    1.3901   -0.6360 C   0  0  0  0  0  0  0  0  0  0  0  0
    5.5884    0.0020   -0.6473 C   0  0  0  0  0  0  0  0  0  0  0  0
    4.4543   -0.8141   -0.6208 C   0  0  0  0  0  0  0  0  0  0  0  0
    3.1582   -0.2682   -0.5824 C   0  0  0  0  0  0  0  0  0  0  0  0
    1.9570   -1.1287   -0.5541 C   0  0  0  0  0  0  0  0  0  0  0  0
    0.7572   -0.5266   -0.5167 N   0  0  0  0  0  0  0  0  0  0  0  0
   -0.3354   -1.3069   -0.4803 C   0  0  0  0  0  0  0  0  0  0  0  0
   -1.6078   -0.6960   -0.4384 N   0  0  0  0  0  0  0  0  0  0  0  0
   -1.5832    0.7591   -0.3303 C   0  0  0  0  0  0  0  0  0  0  0  0
   -3.0088    1.2671   -0.2679 C   0  0  0  0  0  0  0  0  0  0  0  0
   -3.6454    1.6697   -1.4552 C   0  0  0  0  0  0  0  0  0  0  0  0
   -4.9587    2.1340   -1.4356 C   0  0  0  0  0  0  0  0  0  0  0  0
   -5.6531    2.1918   -0.2316 C   0  0  0  0  0  0  0  0  0  0  0  0
   -5.0397    1.7789    0.9543 C   0  0  0  0  0  0  0  0  0  0  0  0
   -3.7209    1.3112    0.9461 C   0  0  0  0  0  0  0  0  0  0  0  0
   -3.0471    0.8605    2.0517 O   0  0  0  0  0  0  0  0  0  0  0  0
   -3.6955    0.9905    3.3105 C   0  0  0  0  0  0  0  0  0  0  0  0
   -0.2479   -2.7095   -0.5174 C   0  0  0  0  0  0  0  0  0  0  0  0
   -1.3556   -3.5962   -0.5310 C   0  0  0  0  0  0  0  0  0  0  0  0
   -1.1680   -4.9762   -0.5592 C   0  0  0  0  0  0  0  0  0  0  0  0
    0.1225   -5.4859   -0.5776 C   0  0  0  0  0  0  0  0  0  0  0  0
    1.2128   -4.6114   -0.5751 C   0  0  0  0  0  0  0  0  0  0  0  0
    1.0503   -3.2310   -0.5501 C   0  0  0  0  0  0  0  0  0  0  0  0
    2.1402   -2.4599   -0.5613 N   0  0  0  0  0  0  0  0  0  0  0  0
    3.0579    1.1374   -0.5721 C   0  0  0  0  0  0  0  0  0  0  0  0
    4.6385    5.2142   -0.6019 H   0  0  0  0  0  0  0  0  0  0  0  0
    5.6580    4.0619    0.2684 H   0  0  0  0  0  0  0  0  0  0  0  0
    5.6026    4.0657   -1.5379 H   0  0  0  0  0  0  0  0  0  0  0  0
    6.3579    1.9906   -0.6573 H   0  0  0  0  0  0  0  0  0  0  0  0
    6.5769   -0.4494   -0.6770 H   0  0  0  0  0  0  0  0  0  0  0  0
    4.5893   -1.8948   -0.6310 H   0  0  0  0  0  0  0  0  0  0  0  0
   -2.1277   -1.0825    0.3461 H   0  0  0  0  0  0  0  0  0  0  0  0
   -1.0342    1.0904    0.5607 H   0  0  0  0  0  0  0  0  0  0  0  0
   -1.0824    1.2048   -1.1999 H   0  0  0  0  0  0  0  0  0  0  0  0
   -3.1132    1.6151   -2.4030 H   0  0  0  0  0  0  0  0  0  0  0  0
   -5.4392    2.4452   -2.3595 H   0  0  0  0  0  0  0  0  0  0  0  0
   -6.6788    2.5516   -0.2146 H   0  0  0  0  0  0  0  0  0  0  0  0
   -5.6241    1.8283    1.8668 H   0  0  0  0  0  0  0  0  0  0  0  0
   -4.5913    0.3627    3.3576 H   0  0  0  0  0  0  0  0  0  0  0  0
   -3.9315    2.0372    3.5293 H   0  0  0  0  0  0  0  0  0  0  0  0
   -3.0025    0.6381    4.0806 H   0  0  0  0  0  0  0  0  0  0  0  0
   -2.3705   -3.2042   -0.5352 H   0  0  0  0  0  0  0  0  0  0  0  0
   -2.0243   -5.6453   -0.5723 H   0  0  0  0  0  0  0  0  0  0  0  0
    0.2881   -6.5598   -0.6013 H   0  0  0  0  0  0  0  0  0  0  0  0
    2.2207   -5.0204   -0.5979 H   0  0  0  0  0  0  0  0  0  0  0  0
    2.0755    1.6072   -0.5435 H   0  0  0  0  0  0  0  0  0  0  0  0
  1  2  1  0
  2  3  1  0
  3  4  2  0
  4  5  1  0
  5  6  2  0
  6  7  1  0
  7  8  1  0
  8  9  2  0
  9 10  1  0
 10 11  1  0
 11 12  1  0
 12 13  1  0
 13 14  2  0
 14 15  1  0
 15 16  2  0
 16 17  1  0
 17 18  2  0
 18 19  1  0
 19 20  1  0
 10 21  2  0
 21 22  1  0
 22 23  2  0
 23 24  1  0
 24 25  2  0
 25 26  1  0
 26 27  2  0
  7 28  2  0
 28  3  1  0
 27  8  1  0
 18 13  1  0
 26 21  1  0
  1 29  1  0
  1 30  1  0
  1 31  1  0
  4 32  1  0
  5 33  1  0
  6 34  1  0
 11 35  1  0
 12 36  1  0
 12 37  1  0
 14 38  1  0
 15 39  1  0
 16 40  1  0
 17 41  1  0
 20 42  1  0
 20 43  1  0
 20 44  1  0
 22 45  1  0
 23 46  1  0
 24 47  1  0
 25 48  1  0
 28 49  1  0
M  END
>  <docking_id>  (17) 
MAPK1_r17_cid4238183

>  <target>  (17) 
MAPK1

>  <compound_id>  (17) 
4238183

>  <admet_priority_rank>  (17) 
17

>  <priority_score>  (17) 
0.9165894074600688

>  <ensemble_calibrated_mean>  (17) 
0.0651282057739221

>  <admet_support_score>  (17) 
0.5016164047695361

>  <toxicity_burden>  (17) 
0.7200923847

>  <label>  (17) 
0

$$$$
MAPK1_r18_cid4237693
     RDKit          3D

 45 48  0  0  0  0  0  0  0  0999 V2000
   -4.3359    2.2985   -0.3556 C   0  0  0  0  0  0  0  0  0  0  0  0
   -3.5129    1.1911   -0.0157 O   0  0  0  0  0  0  0  0  0  0  0  0
   -3.8348   -0.0308   -0.5553 C   0  0  0  0  0  0  0  0  0  0  0  0
   -4.8382   -0.2234   -1.5146 C   0  0  0  0  0  0  0  0  0  0  0  0
   -5.1124   -1.4999   -2.0105 C   0  0  0  0  0  0  0  0  0  0  0  0
   -4.3875   -2.5952   -1.5561 C   0  0  0  0  0  0  0  0  0  0  0  0
   -3.3844   -2.4148   -0.6044 C   0  0  0  0  0  0  0  0  0  0  0  0
   -3.0879   -1.1378   -0.0890 C   0  0  0  0  0  0  0  0  0  0  0  0
   -2.0148   -1.0015    0.9129 C   0  0  0  0  0  0  0  0  0  0  0  0
   -2.0985   -1.6389    2.1537 C   0  0  0  0  0  0  0  0  0  0  0  0
   -1.0648   -1.5177    3.0895 C   0  0  0  0  0  0  0  0  0  0  0  0
    0.0731   -0.7652    2.8338 C   0  0  0  0  0  0  0  0  0  0  0  0
    1.0219   -0.7015    3.7718 N   0  0  0  0  0  0  0  0  0  0  0  0
    2.1015    0.0293    3.4757 C   0  0  0  0  0  0  0  0  0  0  0  0
    2.3120    0.7165    2.3486 N   0  0  0  0  0  0  0  0  0  0  0  0
    1.3500    0.6518    1.4124 C   0  0  0  0  0  0  0  0  0  0  0  0
    1.5124    1.3671    0.2051 N   0  0  0  0  0  0  0  0  0  0  0  0
    2.7732    2.0788    0.0314 C   0  0  0  0  0  0  0  0  0  0  0  0
    3.8478    1.1707   -0.5213 C   0  0  0  0  0  0  0  0  0  0  0  0
    3.7238    0.6177   -1.8051 C   0  0  0  0  0  0  0  0  0  0  0  0
    4.7216   -0.2107   -2.3214 C   0  0  0  0  0  0  0  0  0  0  0  0
    5.8526   -0.4978   -1.5595 C   0  0  0  0  0  0  0  0  0  0  0  0
    5.9844    0.0387   -0.2799 C   0  0  0  0  0  0  0  0  0  0  0  0
    4.9871    0.8675    0.2373 C   0  0  0  0  0  0  0  0  0  0  0  0
    0.1773   -0.1061    1.6025 C   0  0  0  0  0  0  0  0  0  0  0  0
   -0.8664   -0.2425    0.6494 C   0  0  0  0  0  0  0  0  0  0  0  0
   -3.9792    3.1650    0.2096 H   0  0  0  0  0  0  0  0  0  0  0  0
   -4.2504    2.5392   -1.4202 H   0  0  0  0  0  0  0  0  0  0  0  0
   -5.3782    2.1221   -0.0700 H   0  0  0  0  0  0  0  0  0  0  0  0
   -5.4261    0.6023   -1.9009 H   0  0  0  0  0  0  0  0  0  0  0  0
   -5.8929   -1.6366   -2.7549 H   0  0  0  0  0  0  0  0  0  0  0  0
   -4.5971   -3.5888   -1.9435 H   0  0  0  0  0  0  0  0  0  0  0  0
   -2.8176   -3.2813   -0.2681 H   0  0  0  0  0  0  0  0  0  0  0  0
   -2.9732   -2.2342    2.4073 H   0  0  0  0  0  0  0  0  0  0  0  0
   -1.1537   -2.0273    4.0465 H   0  0  0  0  0  0  0  0  0  0  0  0
    2.8822    0.0732    4.2270 H   0  0  0  0  0  0  0  0  0  0  0  0
    0.7171    1.9907    0.1053 H   0  0  0  0  0  0  0  0  0  0  0  0
    2.6144    2.8775   -0.7051 H   0  0  0  0  0  0  0  0  0  0  0  0
    3.0969    2.5959    0.9435 H   0  0  0  0  0  0  0  0  0  0  0  0
    2.8381    0.8248   -2.4013 H   0  0  0  0  0  0  0  0  0  0  0  0
    4.6119   -0.6373   -3.3146 H   0  0  0  0  0  0  0  0  0  0  0  0
    6.6269   -1.1468   -1.9591 H   0  0  0  0  0  0  0  0  0  0  0  0
    6.8602   -0.1940    0.3197 H   0  0  0  0  0  0  0  0  0  0  0  0
    5.0938    1.2666    1.2434 H   0  0  0  0  0  0  0  0  0  0  0  0
   -0.7734    0.2445   -0.3199 H   0  0  0  0  0  0  0  0  0  0  0  0
  1  2  1  0
  2  3  1  0
  3  4  2  0
  4  5  1  0
  5  6  2  0
  6  7  1  0
  7  8  2  0
  8  9  1  0
  9 10  2  0
 10 11  1  0
 11 12  2  0
 12 13  1  0
 13 14  2  0
 14 15  1  0
 15 16  2  0
 16 17  1  0
 17 18  1  0
 18 19  1  0
 19 20  2  0
 20 21  1  0
 21 22  2  0
 22 23  1  0
 23 24  2  0
 16 25  1  0
 25 26  2  0
  8  3  1  0
 26  9  1  0
 25 12  1  0
 24 19  1  0
  1 27  1  0
  1 28  1  0
  1 29  1  0
  4 30  1  0
  5 31  1  0
  6 32  1  0
  7 33  1  0
 10 34  1  0
 11 35  1  0
 14 36  1  0
 17 37  1  0
 18 38  1  0
 18 39  1  0
 20 40  1  0
 21 41  1  0
 22 42  1  0
 23 43  1  0
 24 44  1  0
 26 45  1  0
M  END
>  <docking_id>  (18) 
MAPK1_r18_cid4237693

>  <target>  (18) 
MAPK1

>  <compound_id>  (18) 
4237693

>  <admet_priority_rank>  (18) 
18

>  <priority_score>  (18) 
0.9105525300537072

>  <ensemble_calibrated_mean>  (18) 
0.0651282057739221

>  <admet_support_score>  (18) 
0.5365470431481102

>  <toxicity_burden>  (18) 
0.7082516722000002

>  <label>  (18) 
1

$$$$
MAPK1_r19_cid4239594
     RDKit          3D

 41 44  0  0  0  0  0  0  0  0999 V2000
   -2.2671    2.6497   -0.7497 Cl  0  0  0  0  0  0  0  0  0  0  0  0
   -3.4279    1.7705    0.1922 C   0  0  0  0  0  0  0  0  0  0  0  0
   -4.4623    2.5074    0.7809 C   0  0  0  0  0  0  0  0  0  0  0  0
   -5.4387    1.8639    1.5390 C   0  0  0  0  0  0  0  0  0  0  0  0
   -5.3846    0.4840    1.7094 C   0  0  0  0  0  0  0  0  0  0  0  0
   -4.3535   -0.2539    1.1222 C   0  0  0  0  0  0  0  0  0  0  0  0
   -3.3531    0.3713    0.3533 C   0  0  0  0  0  0  0  0  0  0  0  0
   -2.2882   -0.4520   -0.2426 C   0  0  0  0  0  0  0  0  0  0  0  0
   -2.5758   -1.4118   -1.2168 C   0  0  0  0  0  0  0  0  0  0  0  0
   -1.5545   -2.1870   -1.7790 C   0  0  0  0  0  0  0  0  0  0  0  0
   -0.2263   -2.0294   -1.4083 C   0  0  0  0  0  0  0  0  0  0  0  0
    0.7057   -2.7948   -1.9846 N   0  0  0  0  0  0  0  0  0  0  0  0
    1.9713   -2.6067   -1.6069 C   0  0  0  0  0  0  0  0  0  0  0  0
    2.4136   -1.6874   -0.7308 N   0  0  0  0  0  0  0  0  0  0  0  0
    1.4545   -0.9396   -0.1355 C   0  0  0  0  0  0  0  0  0  0  0  0
    1.8809    0.0544    0.7789 N   0  0  0  0  0  0  0  0  0  0  0  0
    3.0175   -0.3641    1.6361 C   0  0  0  0  0  0  0  0  0  0  0  0
    4.3964    0.0415    1.0635 C   0  0  0  0  0  0  0  0  0  0  0  0
    4.2998    0.2717   -0.4136 N   0  0  0  0  0  0  0  0  0  0  0  0
    3.3538    1.3821   -0.7850 C   0  0  0  0  0  0  0  0  0  0  0  0
    2.0831    1.3584    0.1015 C   0  0  0  0  0  0  0  0  0  0  0  0
    0.0869   -1.0677   -0.4432 C   0  0  0  0  0  0  0  0  0  0  0  0
   -0.9514   -0.3054    0.1496 C   0  0  0  0  0  0  0  0  0  0  0  0
   -4.5170    3.5852    0.6472 H   0  0  0  0  0  0  0  0  0  0  0  0
   -6.2434    2.4380    1.9928 H   0  0  0  0  0  0  0  0  0  0  0  0
   -6.1466   -0.0212    2.2992 H   0  0  0  0  0  0  0  0  0  0  0  0
   -4.3324   -1.3323    1.2748 H   0  0  0  0  0  0  0  0  0  0  0  0
   -3.6001   -1.5646   -1.5543 H   0  0  0  0  0  0  0  0  0  0  0  0
   -1.8091   -2.9304   -2.5326 H   0  0  0  0  0  0  0  0  0  0  0  0
    2.7119   -3.2545   -2.0662 H   0  0  0  0  0  0  0  0  0  0  0  0
    2.9900   -1.4446    1.8296 H   0  0  0  0  0  0  0  0  0  0  0  0
    2.8990    0.1099    2.6181 H   0  0  0  0  0  0  0  0  0  0  0  0
    4.7576    0.9754    1.5067 H   0  0  0  0  0  0  0  0  0  0  0  0
    5.1411   -0.7432    1.2266 H   0  0  0  0  0  0  0  0  0  0  0  0
    5.2150    0.3713   -0.8641 H   0  0  0  0  0  0  0  0  0  0  0  0
    3.8640   -0.5963   -0.7854 H   0  0  0  0  0  0  0  0  0  0  0  0
    3.8954    2.3273   -0.6809 H   0  0  0  0  0  0  0  0  0  0  0  0
    3.1037    1.2270   -1.8392 H   0  0  0  0  0  0  0  0  0  0  0  0
    1.2075    1.6584   -0.4868 H   0  0  0  0  0  0  0  0  0  0  0  0
    2.1900    2.1229    0.8820 H   0  0  0  0  0  0  0  0  0  0  0  0
   -0.7067    0.4168    0.9275 H   0  0  0  0  0  0  0  0  0  0  0  0
  1  2  1  0
  2  3  2  0
  3  4  1  0
  4  5  2  0
  5  6  1  0
  6  7  2  0
  7  8  1  0
  8  9  2  0
  9 10  1  0
 10 11  2  0
 11 12  1  0
 12 13  2  0
 13 14  1  0
 14 15  2  0
 15 16  1  0
 16 17  1  0
 17 18  1  0
 18 19  1  0
 19 20  1  0
 20 21  1  0
 15 22  1  0
 22 23  2  0
  7  2  1  0
 23  8  1  0
 22 11  1  0
 21 16  1  0
  3 24  1  0
  4 25  1  0
  5 26  1  0
  6 27  1  0
  9 28  1  0
 10 29  1  0
 13 30  1  0
 17 31  1  0
 17 32  1  0
 18 33  1  0
 18 34  1  0
 19 35  1  0
 19 36  1  0
 20 37  1  0
 20 38  1  0
 21 39  1  0
 21 40  1  0
 23 41  1  0
M  CHG  1  19   1
M  END
>  <docking_id>  (19) 
MAPK1_r19_cid4239594

>  <target>  (19) 
MAPK1

>  <compound_id>  (19) 
4239594

>  <admet_priority_rank>  (19) 
19

>  <priority_score>  (19) 
0.896104383849959

>  <ensemble_calibrated_mean>  (19) 
0.0623809530266693

>  <admet_support_score>  (19) 
0.7052972979421065

>  <toxicity_burden>  (19) 
0.4582089945199999

>  <label>  (19) 
0

$$$$
MAPK1_r20_cid4240028
     RDKit          3D

 57 60  0  0  0  0  0  0  0  0999 V2000
    7.0580   -0.8572    2.6557 C   0  0  0  0  0  0  0  0  0  0  0  0
    5.7492   -1.0000    2.1167 O   0  0  0  0  0  0  0  0  0  0  0  0
    5.5921   -0.7678    0.7733 C   0  0  0  0  0  0  0  0  0  0  0  0
    6.6453   -0.5127   -0.1133 C   0  0  0  0  0  0  0  0  0  0  0  0
    6.3967   -0.3225   -1.4740 C   0  0  0  0  0  0  0  0  0  0  0  0
    5.0970   -0.3947   -1.9616 C   0  0  0  0  0  0  0  0  0  0  0  0
    4.0415   -0.6494   -1.0871 C   0  0  0  0  0  0  0  0  0  0  0  0
    4.2674   -0.8190    0.2914 C   0  0  0  0  0  0  0  0  0  0  0  0
    3.1318   -1.1299    1.2483 C   0  0  0  0  0  0  0  0  0  0  0  0
    1.8032   -0.7450    0.7458 N   0  0  0  0  0  0  0  0  0  0  0  0
    1.4701    0.6234    0.8681 C   0  0  0  0  0  0  0  0  0  0  0  0
    2.2915    1.4418    1.5409 N   0  0  0  0  0  0  0  0  0  0  0  0
    1.9364    2.7267    1.6287 C   0  0  0  0  0  0  0  0  0  0  0  0
    0.8217    3.2713    1.1288 N   0  0  0  0  0  0  0  0  0  0  0  0
    0.0138    2.4555    0.4521 C   0  0  0  0  0  0  0  0  0  0  0  0
   -1.1345    2.9873   -0.1184 C   0  0  0  0  0  0  0  0  0  0  0  0
   -2.0322    2.2010   -0.8482 C   0  0  0  0  0  0  0  0  0  0  0  0
   -1.8008    0.8341   -1.0151 C   0  0  0  0  0  0  0  0  0  0  0  0
   -2.7357   -0.0031   -1.7770 C   0  0  0  0  0  0  0  0  0  0  0  0
   -2.6879    0.0493   -3.1821 C   0  0  0  0  0  0  0  0  0  0  0  0
   -3.5385   -0.7304   -3.9647 C   0  0  0  0  0  0  0  0  0  0  0  0
   -4.4518   -1.5828   -3.3576 C   0  0  0  0  0  0  0  0  0  0  0  0
   -4.5209   -1.6512   -1.9670 C   0  0  0  0  0  0  0  0  0  0  0  0
   -3.6757   -0.8621   -1.1591 C   0  0  0  0  0  0  0  0  0  0  0  0
   -3.8214   -0.9620    0.3407 C   0  0  0  0  0  0  0  0  0  0  0  0
   -5.1135   -0.3656    0.8647 N   0  0  0  0  0  0  0  0  0  0  0  0
   -5.3906   -0.7999    2.2743 C   0  0  0  0  0  0  0  0  0  0  0  0
   -5.1594    1.1303    0.7314 C   0  0  0  0  0  0  0  0  0  0  0  0
   -0.6348    0.2914   -0.4577 C   0  0  0  0  0  0  0  0  0  0  0  0
    0.2760    1.0897    0.2844 C   0  0  0  0  0  0  0  0  0  0  0  0
    7.7371   -1.6107    2.2437 H   0  0  0  0  0  0  0  0  0  0  0  0
    6.9936   -1.0238    3.7353 H   0  0  0  0  0  0  0  0  0  0  0  0
    7.4437    0.1555    2.4983 H   0  0  0  0  0  0  0  0  0  0  0  0
    7.6765   -0.4631    0.2204 H   0  0  0  0  0  0  0  0  0  0  0  0
    7.2218   -0.1253   -2.1538 H   0  0  0  0  0  0  0  0  0  0  0  0
    4.9040   -0.2550   -3.0219 H   0  0  0  0  0  0  0  0  0  0  0  0
    3.0331   -0.7099   -1.4887 H   0  0  0  0  0  0  0  0  0  0  0  0
    3.3035   -0.7027    2.2438 H   0  0  0  0  0  0  0  0  0  0  0  0
    3.1232   -2.2197    1.3787 H   0  0  0  0  0  0  0  0  0  0  0  0
    1.0872   -1.2874    1.2149 H   0  0  0  0  0  0  0  0  0  0  0  0
    2.6136    3.3871    2.1600 H   0  0  0  0  0  0  0  0  0  0  0  0
   -1.3244    4.0543   -0.0095 H   0  0  0  0  0  0  0  0  0  0  0  0
   -2.8980    2.6785   -1.3031 H   0  0  0  0  0  0  0  0  0  0  0  0
   -1.9681    0.6985   -3.6819 H   0  0  0  0  0  0  0  0  0  0  0  0
   -3.4767   -0.6792   -5.0502 H   0  0  0  0  0  0  0  0  0  0  0  0
   -5.1032   -2.2014   -3.9724 H   0  0  0  0  0  0  0  0  0  0  0  0
   -5.2352   -2.3441   -1.5251 H   0  0  0  0  0  0  0  0  0  0  0  0
   -3.0051   -0.4929    0.8974 H   0  0  0  0  0  0  0  0  0  0  0  0
   -3.8258   -2.0244    0.6158 H   0  0  0  0  0  0  0  0  0  0  0  0
   -5.8694   -0.7362    0.2767 H   0  0  0  0  0  0  0  0  0  0  0  0
   -5.4313   -1.8922    2.2929 H   0  0  0  0  0  0  0  0  0  0  0  0
   -6.3591   -0.3902    2.5731 H   0  0  0  0  0  0  0  0  0  0  0  0
   -4.5909   -0.4257    2.9191 H   0  0  0  0  0  0  0  0  0  0  0  0
   -6.1185    1.4759    1.1269 H   0  0  0  0  0  0  0  0  0  0  0  0
   -5.0937    1.3885   -0.3277 H   0  0  0  0  0  0  0  0  0  0  0  0
   -4.3300    1.5588    1.3001 H   0  0  0  0  0  0  0  0  0  0  0  0
   -0.4020   -0.7600   -0.6255 H   0  0  0  0  0  0  0  0  0  0  0  0
  1  2  1  0
  2  3  1  0
  3  4  2  0
  4  5  1  0
  5  6  2  0
  6  7  1  0
  7  8  2  0
  8  9  1  0
  9 10  1  0
 10 11  1  0
 11 12  2  0
 12 13  1  0
 13 14  2  0
 14 15  1  0
 15 16  2  0
 16 17  1  0
 17 18  2  0
 18 19  1  0
 19 20  2  0
 20 21  1  0
 21 22  2  0
 22 23  1  0
 23 24  2  0
 24 25  1  0
 25 26  1  0
 26 27  1  0
 26 28  1  0
 18 29  1  0
 29 30  2  0
  8  3  1  0
 30 11  1  0
 30 15  1  0
 24 19  1  0
  1 31  1  0
  1 32  1  0
  1 33  1  0
  4 34  1  0
  5 35  1  0
  6 36  1  0
  7 37  1  0
  9 38  1  0
  9 39  1  0
 10 40  1  0
 13 41  1  0
 16 42  1  0
 17 43  1  0
 20 44  1  0
 21 45  1  0
 22 46  1  0
 23 47  1  0
 25 48  1  0
 25 49  1  0
 26 50  1  0
 27 51  1  0
 27 52  1  0
 27 53  1  0
 28 54  1  0
 28 55  1  0
 28 56  1  0
 29 57  1  0
M  CHG  1  26   1
M  END
>  <docking_id>  (20) 
MAPK1_r20_cid4240028

>  <target>  (20) 
MAPK1

>  <compound_id>  (20) 
4240028

>  <admet_priority_rank>  (20) 
20

>  <priority_score>  (20) 
0.90219871183184

>  <ensemble_calibrated_mean>  (20) 
0.0623809530266693

>  <admet_support_score>  (20) 
0.6262469554172121

>  <toxicity_burden>  (20) 
0.48375084016

>  <label>  (20) 
0

$$$$
MAPK1_r21_cid842718
     RDKit          3D

 48 50  0  0  0  0  0  0  0  0999 V2000
    5.5037    1.9650   -1.5010 C   0  0  0  0  0  0  0  0  0  0  0  0
    5.4142    1.1514   -0.3413 O   0  0  0  0  0  0  0  0  0  0  0  0
    5.5843   -0.2427   -0.5910 C   0  0  0  0  0  0  0  0  0  0  0  0
    4.3703   -0.9067   -1.2506 C   0  0  0  0  0  0  0  0  0  0  0  0
    3.2682   -1.2118   -0.3063 N   0  0  0  0  0  0  0  0  0  0  0  0
    2.5509    0.0950    0.4968 S   0  0  0  0  0  0  0  0  0  0  0  0
    3.3000    0.4090    1.6895 O   0  0  0  0  0  0  0  0  0  0  0  0
    2.2330    1.0897   -0.5060 O   0  0  0  0  0  0  0  0  0  0  0  0
    1.0009   -0.6439    1.0110 C   0  0  0  0  0  0  0  0  0  0  0  0
   -0.1634   -0.2354    0.3428 C   0  0  0  0  0  0  0  0  0  0  0  0
   -1.3961   -0.7692    0.7194 C   0  0  0  0  0  0  0  0  0  0  0  0
   -2.6332   -0.3707    0.0080 C   0  0  0  0  0  0  0  0  0  0  0  0
   -3.2423   -1.3045   -0.6577 N   0  0  0  0  0  0  0  0  0  0  0  0
   -4.3739   -0.9942   -1.3668 N   0  0  0  0  0  0  0  0  0  0  0  0
   -4.9563   -2.0836   -2.1282 C   0  0  0  0  0  0  0  0  0  0  0  0
   -4.8885    0.2914   -1.4981 C   0  0  0  0  0  0  0  0  0  0  0  0
   -5.8449    0.5848   -2.2121 O   0  0  0  0  0  0  0  0  0  0  0  0
   -4.2304    1.3433   -0.7022 C   0  0  0  0  0  0  0  0  0  0  0  0
   -4.7400    2.6494   -0.7068 C   0  0  0  0  0  0  0  0  0  0  0  0
   -4.1405    3.6346    0.0767 C   0  0  0  0  0  0  0  0  0  0  0  0
   -3.0407    3.3148    0.8703 C   0  0  0  0  0  0  0  0  0  0  0  0
   -2.5312    2.0132    0.8740 C   0  0  0  0  0  0  0  0  0  0  0  0
   -3.1182    1.0256    0.0702 C   0  0  0  0  0  0  0  0  0  0  0  0
   -1.4759   -1.7255    1.7308 C   0  0  0  0  0  0  0  0  0  0  0  0
   -0.3165   -2.1257    2.3974 C   0  0  0  0  0  0  0  0  0  0  0  0
    0.9397   -1.5966    2.0498 C   0  0  0  0  0  0  0  0  0  0  0  0
    2.1442   -2.0519    2.8282 C   0  0  0  0  0  0  0  0  0  0  0  0
    5.4382    3.0110   -1.1891 H   0  0  0  0  0  0  0  0  0  0  0  0
    4.6802    1.7635   -2.1902 H   0  0  0  0  0  0  0  0  0  0  0  0
    6.4629    1.8138   -2.0051 H   0  0  0  0  0  0  0  0  0  0  0  0
    6.4738   -0.3848   -1.2163 H   0  0  0  0  0  0  0  0  0  0  0  0
    5.7903   -0.7219    0.3725 H   0  0  0  0  0  0  0  0  0  0  0  0
    3.9725   -0.3278   -2.0887 H   0  0  0  0  0  0  0  0  0  0  0  0
    4.6920   -1.8726   -1.6585 H   0  0  0  0  0  0  0  0  0  0  0  0
    2.5722   -1.8517   -0.6883 H   0  0  0  0  0  0  0  0  0  0  0  0
   -0.1148    0.4875   -0.4691 H   0  0  0  0  0  0  0  0  0  0  0  0
   -5.9961   -1.8692   -2.3902 H   0  0  0  0  0  0  0  0  0  0  0  0
   -4.3758   -2.2132   -3.0462 H   0  0  0  0  0  0  0  0  0  0  0  0
   -4.9197   -3.0025   -1.5357 H   0  0  0  0  0  0  0  0  0  0  0  0
   -5.6081    2.8972   -1.3148 H   0  0  0  0  0  0  0  0  0  0  0  0
   -4.5369    4.6474    0.0741 H   0  0  0  0  0  0  0  0  0  0  0  0
   -2.5787    4.0805    1.4903 H   0  0  0  0  0  0  0  0  0  0  0  0
   -1.6825    1.7985    1.5173 H   0  0  0  0  0  0  0  0  0  0  0  0
   -2.4362   -2.1586    2.0024 H   0  0  0  0  0  0  0  0  0  0  0  0
   -0.4014   -2.8623    3.1954 H   0  0  0  0  0  0  0  0  0  0  0  0
    2.9671   -2.3294    2.1644 H   0  0  0  0  0  0  0  0  0  0  0  0
    1.9155   -2.9424    3.4245 H   0  0  0  0  0  0  0  0  0  0  0  0
    2.4680   -1.2681    3.5193 H   0  0  0  0  0  0  0  0  0  0  0  0
  1  2  1  0
  2  3  1  0
  3  4  1  0
  4  5  1  0
  5  6  1  0
  6  7  2  0
  6  8  2  0
  6  9  1  0
  9 10  2  0
 10 11  1  0
 11 12  1  0
 12 13  2  0
 13 14  1  0
 14 15  1  0
 14 16  1  0
 16 17  2  0
 16 18  1  0
 18 19  2  0
 19 20  1  0
 20 21  2  0
 21 22  1  0
 22 23  2  0
 11 24  2  0
 24 25  1  0
 25 26  2  0
 26 27  1  0
 26  9  1  0
 23 12  1  0
 23 18  1  0
  1 28  1  0
  1 29  1  0
  1 30  1  0
  3 31  1  0
  3 32  1  0
  4 33  1  0
  4 34  1  0
  5 35  1  0
 10 36  1  0
 15 37  1  0
 15 38  1  0
 15 39  1  0
 19 40  1  0
 20 41  1  0
 21 42  1  0
 22 43  1  0
 24 44  1  0
 25 45  1  0
 27 46  1  0
 27 47  1  0
 27 48  1  0
M  END
>  <docking_id>  (21) 
MAPK1_r21_cid842718

>  <target>  (21) 
MAPK1

>  <compound_id>  (21) 
842718

>  <admet_priority_rank>  (21) 
21

>  <priority_score>  (21) 
0.890917071762714

>  <ensemble_calibrated_mean>  (21) 
0.0537348223394342

>  <admet_support_score>  (21) 
0.6507151283304224

>  <toxicity_burden>  (21) 
0.4745413662

>  <label>  (21) 
0

$$$$
MAPK1_r22_cid4238690
     RDKit          3D

 42 44  0  0  0  0  0  0  0  0999 V2000
    4.8339   -1.1739   -2.3263 C   0  0  0  0  0  0  0  0  0  0  0  0
    3.5748   -1.0753   -1.6735 O   0  0  0  0  0  0  0  0  0  0  0  0
    3.5694   -0.5457   -0.4124 C   0  0  0  0  0  0  0  0  0  0  0  0
    4.6813   -0.0721    0.2817 C   0  0  0  0  0  0  0  0  0  0  0  0
    4.5321    0.4472    1.5690 C   0  0  0  0  0  0  0  0  0  0  0  0
    3.2715    0.4951    2.1673 C   0  0  0  0  0  0  0  0  0  0  0  0
    2.1356    0.0261    1.4892 C   0  0  0  0  0  0  0  0  0  0  0  0
    0.8063    0.0693    2.1204 C   0  0  0  0  0  0  0  0  0  0  0  0
    0.5720   -0.5825    3.3242 C   0  0  0  0  0  0  0  0  0  0  0  0
   -0.6078   -0.6018    3.9729 N   0  0  0  0  0  0  0  0  0  0  0  0
   -1.5958    0.0583    3.3623 C   0  0  0  0  0  0  0  0  0  0  0  0
   -1.5028    0.7313    2.2074 N   0  0  0  0  0  0  0  0  0  0  0  0
   -0.3046    0.7377    1.5876 C   0  0  0  0  0  0  0  0  0  0  0  0
   -0.1736    1.4195    0.3638 N   0  0  0  0  0  0  0  0  0  0  0  0
   -1.3578    2.0744   -0.1715 C   0  0  0  0  0  0  0  0  0  0  0  0
   -2.1860    1.1141   -0.9940 C   0  0  0  0  0  0  0  0  0  0  0  0
   -1.6704    0.5603   -2.1747 C   0  0  0  0  0  0  0  0  0  0  0  0
   -2.4405   -0.3123   -2.9429 C   0  0  0  0  0  0  0  0  0  0  0  0
   -3.7319   -0.6474   -2.5366 C   0  0  0  0  0  0  0  0  0  0  0  0
   -4.2584   -0.1257   -1.3497 C   0  0  0  0  0  0  0  0  0  0  0  0
   -5.6531   -0.4708   -0.9197 C   0  0  0  0  0  0  0  0  0  0  0  0
   -3.4833    0.7627   -0.5914 C   0  0  0  0  0  0  0  0  0  0  0  0
    2.3097   -0.4941    0.1948 C   0  0  0  0  0  0  0  0  0  0  0  0
    5.5159   -1.8278   -1.7728 H   0  0  0  0  0  0  0  0  0  0  0  0
    5.2749   -0.1841   -2.4838 H   0  0  0  0  0  0  0  0  0  0  0  0
    4.6664   -1.6237   -3.3096 H   0  0  0  0  0  0  0  0  0  0  0  0
    5.6766   -0.0917   -0.1492 H   0  0  0  0  0  0  0  0  0  0  0  0
    5.4013    0.8169    2.1077 H   0  0  0  0  0  0  0  0  0  0  0  0
    3.1824    0.9121    3.1690 H   0  0  0  0  0  0  0  0  0  0  0  0
    1.3625   -1.1433    3.8175 H   0  0  0  0  0  0  0  0  0  0  0  0
   -2.5653    0.0521    3.8477 H   0  0  0  0  0  0  0  0  0  0  0  0
    0.6282    2.0401    0.4089 H   0  0  0  0  0  0  0  0  0  0  0  0
   -1.0309    2.8789   -0.8433 H   0  0  0  0  0  0  0  0  0  0  0  0
   -1.9517    2.5752    0.6034 H   0  0  0  0  0  0  0  0  0  0  0  0
   -0.6591    0.8043   -2.4924 H   0  0  0  0  0  0  0  0  0  0  0  0
   -2.0313   -0.7347   -3.8565 H   0  0  0  0  0  0  0  0  0  0  0  0
   -4.3216   -1.3270   -3.1470 H   0  0  0  0  0  0  0  0  0  0  0  0
   -5.9333   -1.4711   -1.2661 H   0  0  0  0  0  0  0  0  0  0  0  0
   -6.3613    0.2562   -1.3289 H   0  0  0  0  0  0  0  0  0  0  0  0
   -5.7360   -0.4709    0.1723 H   0  0  0  0  0  0  0  0  0  0  0  0
   -3.8851    1.1752    0.3323 H   0  0  0  0  0  0  0  0  0  0  0  0
    1.4470   -0.8679   -0.3571 H   0  0  0  0  0  0  0  0  0  0  0  0
  1  2  1  0
  2  3  1  0
  3  4  2  0
  4  5  1  0
  5  6  2  0
  6  7  1  0
  7  8  1  0
  8  9  2  0
  9 10  1  0
 10 11  2  0
 11 12  1  0
 12 13  2  0
 13 14  1  0
 14 15  1  0
 15 16  1  0
 16 17  2  0
 17 18  1  0
 18 19  2  0
 19 20  1  0
 20 21  1  0
 20 22  2  0
  7 23  2  0
 23  3  1  0
 13  8  1  0
 22 16  1  0
  1 24  1  0
  1 25  1  0
  1 26  1  0
  4 27  1  0
  5 28  1  0
  6 29  1  0
  9 30  1  0
 11 31  1  0
 14 32  1  0
 15 33  1  0
 15 34  1  0
 17 35  1  0
 18 36  1  0
 19 37  1  0
 21 38  1  0
 21 39  1  0
 21 40  1  0
 22 41  1  0
 23 42  1  0
M  END
>  <docking_id>  (22) 
MAPK1_r22_cid4238690

>  <target>  (22) 
MAPK1

>  <compound_id>  (22) 
4238690

>  <admet_priority_rank>  (22) 
22

>  <priority_score>  (22) 
0.89372655485108

>  <ensemble_calibrated_mean>  (22) 
0.0623809530266693

>  <admet_support_score>  (22) 
0.5803145927639551

>  <toxicity_burden>  (22) 
0.6273697821

>  <label>  (22) 
0

$$$$
MAPK1_r23_cid845302
     RDKit          3D

 44 45  0  0  0  0  0  0  0  0999 V2000
   -5.6340   -1.7890   -1.6602 C   0  0  0  0  0  0  0  0  0  0  0  0
   -5.1174   -0.3631   -1.6153 C   0  0  0  0  0  0  0  0  0  0  0  0
   -3.8249   -0.2631   -0.8263 N   0  0  0  0  0  0  0  0  0  0  0  0
   -3.9003   -0.7322    0.6147 C   0  0  0  0  0  0  0  0  0  0  0  0
   -4.8877    0.0632    1.4475 C   0  0  0  0  0  0  0  0  0  0  0  0
   -3.1651    1.1043   -1.0190 C   0  0  0  0  0  0  0  0  0  0  0  0
   -1.6678    1.0903   -0.6893 C   0  0  0  0  0  0  0  0  0  0  0  0
   -0.8357   -0.2681   -1.5803 S   0  0  0  0  0  0  0  0  0  0  0  0
    0.8140   -0.0978   -0.9379 C   0  0  0  0  0  0  0  0  0  0  0  0
    1.1668    1.0639   -0.3745 N   0  0  0  0  0  0  0  0  0  0  0  0
    2.4300    1.1133    0.0879 C   0  0  0  0  0  0  0  0  0  0  0  0
    2.7401    2.3262    0.6232 O   0  0  0  0  0  0  0  0  0  0  0  0
    3.3623    0.0932    0.0404 C   0  0  0  0  0  0  0  0  0  0  0  0
    4.7348    0.1983    0.5614 C   0  0  0  0  0  0  0  0  0  0  0  0
    5.8442   -0.1315   -0.2375 C   0  0  0  0  0  0  0  0  0  0  0  0
    7.1485   -0.0322    0.2557 C   0  0  0  0  0  0  0  0  0  0  0  0
    7.3699    0.4004    1.5597 C   0  0  0  0  0  0  0  0  0  0  0  0
    6.2888    0.7331    2.3702 C   0  0  0  0  0  0  0  0  0  0  0  0
    4.9851    0.6324    1.8754 C   0  0  0  0  0  0  0  0  0  0  0  0
    2.8427   -1.0358   -0.5632 C   0  0  0  0  0  0  0  0  0  0  0  0
    3.5813   -2.1695   -0.7042 O   0  0  0  0  0  0  0  0  0  0  0  0
    1.5991   -1.1731   -1.0525 N   0  0  0  0  0  0  0  0  0  0  0  0
   -5.9950   -2.1211   -0.6825 H   0  0  0  0  0  0  0  0  0  0  0  0
   -6.4766   -1.8568   -2.3560 H   0  0  0  0  0  0  0  0  0  0  0  0
   -4.8593   -2.4837   -2.0004 H   0  0  0  0  0  0  0  0  0  0  0  0
   -5.8426    0.3283   -1.1767 H   0  0  0  0  0  0  0  0  0  0  0  0
   -4.8905   -0.0353   -2.6357 H   0  0  0  0  0  0  0  0  0  0  0  0
   -3.1739   -0.9193   -1.2888 H   0  0  0  0  0  0  0  0  0  0  0  0
   -2.8939   -0.6632    1.0370 H   0  0  0  0  0  0  0  0  0  0  0  0
   -4.1654   -1.7936    0.5977 H   0  0  0  0  0  0  0  0  0  0  0  0
   -4.8825   -0.3101    2.4771 H   0  0  0  0  0  0  0  0  0  0  0  0
   -5.9106   -0.0349    1.0734 H   0  0  0  0  0  0  0  0  0  0  0  0
   -4.6314    1.1253    1.4854 H   0  0  0  0  0  0  0  0  0  0  0  0
   -3.7082    1.8332   -0.4108 H   0  0  0  0  0  0  0  0  0  0  0  0
   -3.2989    1.3771   -2.0728 H   0  0  0  0  0  0  0  0  0  0  0  0
   -1.2316    2.0490   -0.9893 H   0  0  0  0  0  0  0  0  0  0  0  0
   -1.5160    0.9724    0.3881 H   0  0  0  0  0  0  0  0  0  0  0  0
    1.9463    2.8519    0.4333 H   0  0  0  0  0  0  0  0  0  0  0  0
    5.7035   -0.4725   -1.2615 H   0  0  0  0  0  0  0  0  0  0  0  0
    7.9905   -0.2941   -0.3801 H   0  0  0  0  0  0  0  0  0  0  0  0
    8.3840    0.4779    1.9435 H   0  0  0  0  0  0  0  0  0  0  0  0
    6.4586    1.0720    3.3891 H   0  0  0  0  0  0  0  0  0  0  0  0
    4.1607    0.8989    2.5337 H   0  0  0  0  0  0  0  0  0  0  0  0
    2.9581   -2.7646   -1.1555 H   0  0  0  0  0  0  0  0  0  0  0  0
  1  2  1  0
  2  3  1  0
  3  4  1  0
  4  5  1  0
  3  6  1  0
  6  7  1  0
  7  8  1  0
  8  9  1  0
  9 10  2  0
 10 11  1  0
 11 12  1  0
 11 13  2  0
 13 14  1  0
 14 15  2  0
 15 16  1  0
 16 17  2  0
 17 18  1  0
 18 19  2  0
 13 20  1  0
 20 21  1  0
 20 22  2  0
 22  9  1  0
 19 14  1  0
  1 23  1  0
  1 24  1  0
  1 25  1  0
  2 26  1  0
  2 27  1  0
  3 28  1  0
  4 29  1  0
  4 30  1  0
  5 31  1  0
  5 32  1  0
  5 33  1  0
  6 34  1  0
  6 35  1  0
  7 36  1  0
  7 37  1  0
 12 38  1  0
 15 39  1  0
 16 40  1  0
 17 41  1  0
 18 42  1  0
 19 43  1  0
 21 44  1  0
M  CHG  1   3   1
M  END
>  <docking_id>  (23) 
MAPK1_r23_cid845302

>  <target>  (23) 
MAPK1

>  <compound_id>  (23) 
845302

>  <admet_priority_rank>  (23) 
23

>  <priority_score>  (23) 
0.8980044337526021

>  <ensemble_calibrated_mean>  (23) 
0.0623809530266693

>  <admet_support_score>  (23) 
0.5205859252443276

>  <toxicity_burden>  (23) 
0.26305877164

>  <label>  (23) 
0

$$$$
MAPK1_r24_cid847621
     RDKit          3D

 28 29  0  0  0  0  0  0  0  0999 V2000
   -4.2042   -1.2537    1.0598 C   0  0  0  0  0  0  0  0  0  0  0  0
   -2.8133   -0.9733    0.5324 C   0  0  0  0  0  0  0  0  0  0  0  0
   -1.9297   -1.7851    0.8119 O   0  0  0  0  0  0  0  0  0  0  0  0
   -2.6641    0.1918   -0.2367 N   0  0  0  0  0  0  0  0  0  0  0  0
   -3.8202    0.9524   -0.7130 C   0  0  0  0  0  0  0  0  0  0  0  0
   -1.3447    0.6025   -0.4905 C   0  0  0  0  0  0  0  0  0  0  0  0
   -0.2411    0.0307   -0.0728 N   0  0  0  0  0  0  0  0  0  0  0  0
    0.8877    0.7097   -0.5019 C   0  0  0  0  0  0  0  0  0  0  0  0
    2.2231    0.2217   -0.1574 C   0  0  0  0  0  0  0  0  0  0  0  0
    3.3907    0.9487   -0.4363 C   0  0  0  0  0  0  0  0  0  0  0  0
    4.6486    0.4414   -0.0875 C   0  0  0  0  0  0  0  0  0  0  0  0
    4.7499   -0.7958    0.5441 C   0  0  0  0  0  0  0  0  0  0  0  0
    6.2974   -1.4141    0.9703 Cl  0  0  0  0  0  0  0  0  0  0  0  0
    3.6052   -1.5312    0.8323 C   0  0  0  0  0  0  0  0  0  0  0  0
    2.3499   -1.0229    0.4835 C   0  0  0  0  0  0  0  0  0  0  0  0
    0.6138    1.8322   -1.2553 C   0  0  0  0  0  0  0  0  0  0  0  0
   -1.0803    2.0326   -1.4137 S   0  0  0  0  0  0  0  0  0  0  0  0
   -4.8385   -1.6409    0.2584 H   0  0  0  0  0  0  0  0  0  0  0  0
   -4.6404   -0.3575    1.5091 H   0  0  0  0  0  0  0  0  0  0  0  0
   -4.1435   -2.0132    1.8462 H   0  0  0  0  0  0  0  0  0  0  0  0
   -3.8967    1.8794   -0.1363 H   0  0  0  0  0  0  0  0  0  0  0  0
   -3.7100    1.1746   -1.7789 H   0  0  0  0  0  0  0  0  0  0  0  0
   -4.7577    0.4034   -0.6134 H   0  0  0  0  0  0  0  0  0  0  0  0
    3.3507    1.9198   -0.9206 H   0  0  0  0  0  0  0  0  0  0  0  0
    5.5424    1.0182   -0.3104 H   0  0  0  0  0  0  0  0  0  0  0  0
    3.6740   -2.4964    1.3265 H   0  0  0  0  0  0  0  0  0  0  0  0
    1.4608   -1.6101    0.7169 H   0  0  0  0  0  0  0  0  0  0  0  0
    1.2900    2.5352   -1.7172 H   0  0  0  0  0  0  0  0  0  0  0  0
  1  2  1  0
  2  3  2  0
  2  4  1  0
  4  5  1  0
  4  6  1  0
  6  7  2  0
  7  8  1  0
  8  9  1  0
  9 10  2  0
 10 11  1  0
 11 12  2  0
 12 13  1  0
 12 14  1  0
 14 15  2  0
  8 16  2  0
 16 17  1  0
 17  6  1  0
 15  9  1  0
  1 18  1  0
  1 19  1  0
  1 20  1  0
  5 21  1  0
  5 22  1  0
  5 23  1  0
 10 24  1  0
 11 25  1  0
 14 26  1  0
 15 27  1  0
 16 28  1  0
M  END
>  <docking_id>  (24) 
MAPK1_r24_cid847621

>  <target>  (24) 
MAPK1

>  <compound_id>  (24) 
847621

>  <admet_priority_rank>  (24) 
24

>  <priority_score>  (24) 
0.8620572400778757

>  <ensemble_calibrated_mean>  (24) 
0.0516666673123836

>  <admet_support_score>  (24) 
0.7625292436871314

>  <toxicity_burden>  (24) 
0.47129746056

>  <label>  (24) 
0

$$$$
MAPK1_r25_cid7977623
     RDKit          3D

 52 54  0  0  0  0  0  0  0  0999 V2000
   -3.7441   -1.4885    2.2566 C   0  0  0  0  0  0  0  0  0  0  0  0
   -3.2575   -0.7007    1.1745 O   0  0  0  0  0  0  0  0  0  0  0  0
   -4.1357    0.1908    0.6021 C   0  0  0  0  0  0  0  0  0  0  0  0
   -5.4603    0.3633    1.0261 C   0  0  0  0  0  0  0  0  0  0  0  0
   -6.2956    1.2898    0.3968 C   0  0  0  0  0  0  0  0  0  0  0  0
   -5.8194    2.0543   -0.6616 C   0  0  0  0  0  0  0  0  0  0  0  0
   -4.5046    1.8933   -1.0938 C   0  0  0  0  0  0  0  0  0  0  0  0
   -3.6453    0.9680   -0.4774 C   0  0  0  0  0  0  0  0  0  0  0  0
   -2.3290    0.8908   -1.0022 N   0  0  0  0  0  0  0  0  0  0  0  0
   -1.3160    1.3468   -0.0267 C   0  0  0  0  0  0  0  0  0  0  0  0
    0.0815    1.3561   -0.6787 C   0  0  0  0  0  0  0  0  0  0  0  0
    0.4156    0.0033   -1.2984 N   0  0  0  0  0  0  0  0  0  0  0  0
    0.7604   -1.0756   -0.3010 C   0  0  0  0  0  0  0  0  0  0  0  0
    2.0310   -0.8037    0.4622 C   0  0  0  0  0  0  0  0  0  0  0  0
    2.0253   -0.8399    1.8628 C   0  0  0  0  0  0  0  0  0  0  0  0
    3.1934   -0.5786    2.5731 C   0  0  0  0  0  0  0  0  0  0  0  0
    4.3748   -0.2651    1.8975 C   0  0  0  0  0  0  0  0  0  0  0  0
    4.4104   -0.2248    0.4999 C   0  0  0  0  0  0  0  0  0  0  0  0
    5.5123    0.1371   -0.2256 O   0  0  0  0  0  0  0  0  0  0  0  0
    6.7125    0.4313    0.4816 C   0  0  0  0  0  0  0  0  0  0  0  0
    3.2383   -0.5323   -0.2175 C   0  0  0  0  0  0  0  0  0  0  0  0
    3.1312   -0.5190   -1.5931 O   0  0  0  0  0  0  0  0  0  0  0  0
    4.2256   -1.1273   -2.2868 C   0  0  0  0  0  0  0  0  0  0  0  0
   -0.6622   -0.4107   -2.2880 C   0  0  0  0  0  0  0  0  0  0  0  0
   -2.0560   -0.4199   -1.6270 C   0  0  0  0  0  0  0  0  0  0  0  0
   -4.0321   -0.8593    3.1050 H   0  0  0  0  0  0  0  0  0  0  0  0
   -4.5693   -2.1330    1.9365 H   0  0  0  0  0  0  0  0  0  0  0  0
   -2.9269   -2.1367    2.5876 H   0  0  0  0  0  0  0  0  0  0  0  0
   -5.8827   -0.2068    1.8473 H   0  0  0  0  0  0  0  0  0  0  0  0
   -7.3219    1.4140    0.7360 H   0  0  0  0  0  0  0  0  0  0  0  0
   -6.4699    2.7753   -1.1506 H   0  0  0  0  0  0  0  0  0  0  0  0
   -4.1430    2.4973   -1.9228 H   0  0  0  0  0  0  0  0  0  0  0  0
   -1.2897    0.7126    0.8654 H   0  0  0  0  0  0  0  0  0  0  0  0
   -1.5484    2.3676    0.3014 H   0  0  0  0  0  0  0  0  0  0  0  0
    0.8642    1.6127    0.0407 H   0  0  0  0  0  0  0  0  0  0  0  0
    0.1184    2.0794   -1.5014 H   0  0  0  0  0  0  0  0  0  0  0  0
    1.2880    0.1347   -1.8346 H   0  0  0  0  0  0  0  0  0  0  0  0
   -0.0956   -1.1954    0.3706 H   0  0  0  0  0  0  0  0  0  0  0  0
    0.8812   -2.0107   -0.8612 H   0  0  0  0  0  0  0  0  0  0  0  0
    1.1179   -1.0717    2.4185 H   0  0  0  0  0  0  0  0  0  0  0  0
    3.1885   -0.6078    3.6618 H   0  0  0  0  0  0  0  0  0  0  0  0
    5.2526   -0.0474    2.4994 H   0  0  0  0  0  0  0  0  0  0  0  0
    7.0593   -0.4386    1.0489 H   0  0  0  0  0  0  0  0  0  0  0  0
    6.5833    1.3041    1.1298 H   0  0  0  0  0  0  0  0  0  0  0  0
    7.4823    0.6759   -0.2565 H   0  0  0  0  0  0  0  0  0  0  0  0
    4.9692   -0.3721   -2.5562 H   0  0  0  0  0  0  0  0  0  0  0  0
    4.6768   -1.9517   -1.7235 H   0  0  0  0  0  0  0  0  0  0  0  0
    3.8295   -1.5432   -3.2186 H   0  0  0  0  0  0  0  0  0  0  0  0
   -0.3932   -1.3938   -2.6870 H   0  0  0  0  0  0  0  0  0  0  0  0
   -0.6229    0.3207   -3.1032 H   0  0  0  0  0  0  0  0  0  0  0  0
   -2.0990   -1.2383   -0.9008 H   0  0  0  0  0  0  0  0  0  0  0  0
   -2.8033   -0.6264   -2.4033 H   0  0  0  0  0  0  0  0  0  0  0  0
  1  2  1  0
  2  3  1  0
  3  4  2  0
  4  5  1  0
  5  6  2  0
  6  7  1  0
  7  8  2  0
  8  9  1  0
  9 10  1  0
 10 11  1  0
 11 12  1  0
 12 13  1  0
 13 14  1  0
 14 15  2  0
 15 16  1  0
 16 17  2  0
 17 18  1  0
 18 19  1  0
 19 20  1  0
 18 21  2  0
 21 22  1  0
 22 23  1  0
 12 24  1  0
 24 25  1  0
  8  3  1  0
 25  9  1  0
 21 14  1  0
  1 26  1  0
  1 27  1  0
  1 28  1  0
  4 29  1  0
  5 30  1  0
  6 31  1  0
  7 32  1  0
 10 33  1  0
 10 34  1  0
 11 35  1  0
 11 36  1  0
 12 37  1  0
 13 38  1  0
 13 39  1  0
 15 40  1  0
 16 41  1  0
 17 42  1  0
 20 43  1  0
 20 44  1  0
 20 45  1  0
 23 46  1  0
 23 47  1  0
 23 48  1  0
 24 49  1  0
 24 50  1  0
 25 51  1  0
 25 52  1  0
M  CHG  1  12   1
M  END
>  <docking_id>  (25) 
MAPK1_r25_cid7977623

>  <target>  (25) 
MAPK1

>  <compound_id>  (25) 
7977623

>  <admet_priority_rank>  (25) 
25

>  <priority_score>  (25) 
0.8658113715284822

>  <ensemble_calibrated_mean>  (25) 
0.0516666673123836

>  <admet_support_score>  (25) 
0.6852723126427751

>  <toxicity_burden>  (25) 
0.3211483970086

>  <label>  (25) 
0

$$$$
MAPK1_r26_cid850001
     RDKit          3D

 41 42  0  0  0  0  0  0  0  0999 V2000
   -4.5015   -1.6644   -0.6125 C   0  0  0  0  0  0  0  0  0  0  0  0
   -4.3230   -0.5288    0.3839 C   0  0  0  0  0  0  0  0  0  0  0  0
   -3.1050    0.3098    0.0793 C   0  0  0  0  0  0  0  0  0  0  0  0
   -3.3803    1.4661   -0.5757 N   0  0  0  0  0  0  0  0  0  0  0  0
   -2.3726    2.2813   -0.9272 C   0  0  0  0  0  0  0  0  0  0  0  0
   -2.7807    3.4590   -1.5487 N   0  0  0  0  0  0  0  0  0  0  0  0
   -1.0425    1.9873   -0.6478 C   0  0  0  0  0  0  0  0  0  0  0  0
   -0.0128    2.8961   -1.0590 C   0  0  0  0  0  0  0  0  0  0  0  0
    0.8187    3.6240   -1.4168 N   0  0  0  0  0  0  0  0  0  0  0  0
   -0.7369    0.7846    0.0239 C   0  0  0  0  0  0  0  0  0  0  0  0
    0.6667    0.4255    0.3079 C   0  0  0  0  0  0  0  0  0  0  0  0
    1.3213    0.9383    1.4348 C   0  0  0  0  0  0  0  0  0  0  0  0
    2.6469    0.5918    1.7103 C   0  0  0  0  0  0  0  0  0  0  0  0
    3.3432   -0.2730    0.8610 C   0  0  0  0  0  0  0  0  0  0  0  0
    4.6415   -0.6735    1.0570 O   0  0  0  0  0  0  0  0  0  0  0  0
    5.3619   -0.0711    2.1225 C   0  0  0  0  0  0  0  0  0  0  0  0
    2.6994   -0.7927   -0.2792 C   0  0  0  0  0  0  0  0  0  0  0  0
    3.4455   -1.6419   -1.0593 O   0  0  0  0  0  0  0  0  0  0  0  0
    2.9064   -2.0263   -2.3156 C   0  0  0  0  0  0  0  0  0  0  0  0
    1.3699   -0.4411   -0.5454 C   0  0  0  0  0  0  0  0  0  0  0  0
   -1.7981   -0.0735    0.4127 C   0  0  0  0  0  0  0  0  0  0  0  0
   -1.5031   -1.3769    1.1129 C   0  0  0  0  0  0  0  0  0  0  0  0
   -5.4123   -2.2271   -0.3841 H   0  0  0  0  0  0  0  0  0  0  0  0
   -3.6591   -2.3627   -0.5872 H   0  0  0  0  0  0  0  0  0  0  0  0
   -4.5872   -1.2812   -1.6352 H   0  0  0  0  0  0  0  0  0  0  0  0
   -4.2881   -0.9074    1.4104 H   0  0  0  0  0  0  0  0  0  0  0  0
   -5.2133    0.1120    0.3420 H   0  0  0  0  0  0  0  0  0  0  0  0
   -3.7900    3.4063   -1.6691 H   0  0  0  0  0  0  0  0  0  0  0  0
   -2.3037    3.6407   -2.4253 H   0  0  0  0  0  0  0  0  0  0  0  0
    0.8012    1.6124    2.1133 H   0  0  0  0  0  0  0  0  0  0  0  0
    3.1058    1.0132    2.5983 H   0  0  0  0  0  0  0  0  0  0  0  0
    4.9311   -0.3432    3.0916 H   0  0  0  0  0  0  0  0  0  0  0  0
    5.4137    1.0162    2.0026 H   0  0  0  0  0  0  0  0  0  0  0  0
    6.3854   -0.4572    2.0946 H   0  0  0  0  0  0  0  0  0  0  0  0
    2.0260   -2.6639   -2.1855 H   0  0  0  0  0  0  0  0  0  0  0  0
    3.6663   -2.6135   -2.8402 H   0  0  0  0  0  0  0  0  0  0  0  0
    2.6754   -1.1529   -2.9347 H   0  0  0  0  0  0  0  0  0  0  0  0
    0.8527   -0.8380   -1.4134 H   0  0  0  0  0  0  0  0  0  0  0  0
   -0.7476   -1.2429    1.8939 H   0  0  0  0  0  0  0  0  0  0  0  0
   -2.3749   -1.7951    1.6202 H   0  0  0  0  0  0  0  0  0  0  0  0
   -1.1465   -2.1163    0.3887 H   0  0  0  0  0  0  0  0  0  0  0  0
  1  2  1  0
  2  3  1  0
  3  4  2  0
  4  5  1  0
  5  6  1  0
  5  7  2  0
  7  8  1  0
  8  9  3  0
  7 10  1  0
 10 11  1  0
 11 12  2  0
 12 13  1  0
 13 14  2  0
 14 15  1  0
 15 16  1  0
 14 17  1  0
 17 18  1  0
 18 19  1  0
 17 20  2  0
 10 21  2  0
 21 22  1  0
 21  3  1  0
 20 11  1  0
  1 23  1  0
  1 24  1  0
  1 25  1  0
  2 26  1  0
  2 27  1  0
  6 28  1  0
  6 29  1  0
 12 30  1  0
 13 31  1  0
 16 32  1  0
 16 33  1  0
 16 34  1  0
 19 35  1  0
 19 36  1  0
 19 37  1  0
 20 38  1  0
 22 39  1  0
 22 40  1  0
 22 41  1  0
M  END
>  <docking_id>  (26) 
MAPK1_r26_cid850001

>  <target>  (26) 
MAPK1

>  <compound_id>  (26) 
850001

>  <admet_priority_rank>  (26) 
26

>  <priority_score>  (26) 
0.7301458776732968

>  <ensemble_calibrated_mean>  (26) 
0.0427956995704481

>  <admet_support_score>  (26) 
0.7541454357760871

>  <toxicity_burden>  (26) 
0.4453178274

>  <label>  (26) 
0

$$$$
MAPK1_r27_cid848054
     RDKit          3D

 41 42  0  0  0  0  0  0  0  0999 V2000
    5.4325    1.5621    1.5123 C   0  0  0  0  0  0  0  0  0  0  0  0
    4.7517    0.3327    1.3067 O   0  0  0  0  0  0  0  0  0  0  0  0
    3.6790    0.3307    0.4499 C   0  0  0  0  0  0  0  0  0  0  0  0
    3.2014    1.4641   -0.2200 C   0  0  0  0  0  0  0  0  0  0  0  0
    2.0996    1.3688   -1.0717 C   0  0  0  0  0  0  0  0  0  0  0  0
    1.4688    0.1366   -1.2426 C   0  0  0  0  0  0  0  0  0  0  0  0
    0.0691    0.0124   -2.3323 S   0  0  0  0  0  0  0  0  0  0  0  0
    0.1771    1.0868   -3.3025 O   0  0  0  0  0  0  0  0  0  0  0  0
   -0.0173   -1.3679   -2.7746 O   0  0  0  0  0  0  0  0  0  0  0  0
   -1.3629    0.3398   -1.3301 C   0  0  0  0  0  0  0  0  0  0  0  0
   -1.8409    1.6454   -1.2183 C   0  0  0  0  0  0  0  0  0  0  0  0
   -2.9682    1.8991   -0.4350 C   0  0  0  0  0  0  0  0  0  0  0  0
   -3.6228    0.8515    0.2249 C   0  0  0  0  0  0  0  0  0  0  0  0
   -4.7333    1.0093    1.0165 O   0  0  0  0  0  0  0  0  0  0  0  0
   -5.2640    2.3190    1.1591 C   0  0  0  0  0  0  0  0  0  0  0  0
   -3.1446   -0.4704    0.0882 C   0  0  0  0  0  0  0  0  0  0  0  0
   -3.8471   -1.4377    0.7634 O   0  0  0  0  0  0  0  0  0  0  0  0
   -3.4958   -2.7945    0.5307 C   0  0  0  0  0  0  0  0  0  0  0  0
   -2.0130   -0.7217   -0.6933 C   0  0  0  0  0  0  0  0  0  0  0  0
    1.9416   -1.0097   -0.5963 C   0  0  0  0  0  0  0  0  0  0  0  0
    3.0474   -0.9174    0.2540 C   0  0  0  0  0  0  0  0  0  0  0  0
    3.5816   -1.9774    0.9440 O   0  0  0  0  0  0  0  0  0  0  0  0
    3.0742   -3.2741    0.6618 C   0  0  0  0  0  0  0  0  0  0  0  0
    4.7723    2.3076    1.9675 H   0  0  0  0  0  0  0  0  0  0  0  0
    6.2546    1.3766    2.2103 H   0  0  0  0  0  0  0  0  0  0  0  0
    5.8670    1.9342    0.5787 H   0  0  0  0  0  0  0  0  0  0  0  0
    3.6696    2.4361   -0.1029 H   0  0  0  0  0  0  0  0  0  0  0  0
    1.7482    2.2556   -1.5952 H   0  0  0  0  0  0  0  0  0  0  0  0
   -1.3508    2.4679   -1.7350 H   0  0  0  0  0  0  0  0  0  0  0  0
   -3.3152    2.9248   -0.3625 H   0  0  0  0  0  0  0  0  0  0  0  0
   -6.1414    2.2554    1.8099 H   0  0  0  0  0  0  0  0  0  0  0  0
   -5.5941    2.7189    0.1948 H   0  0  0  0  0  0  0  0  0  0  0  0
   -4.5420    2.9873    1.6396 H   0  0  0  0  0  0  0  0  0  0  0  0
   -2.4904   -3.0095    0.9071 H   0  0  0  0  0  0  0  0  0  0  0  0
   -4.1993   -3.4222    1.0862 H   0  0  0  0  0  0  0  0  0  0  0  0
   -3.5858   -3.0523   -0.5298 H   0  0  0  0  0  0  0  0  0  0  0  0
   -1.6254   -1.7276   -0.8174 H   0  0  0  0  0  0  0  0  0  0  0  0
    1.4389   -1.9560   -0.7668 H   0  0  0  0  0  0  0  0  0  0  0  0
    3.6582   -3.9953    1.2416 H   0  0  0  0  0  0  0  0  0  0  0  0
    2.0293   -3.3635    0.9763 H   0  0  0  0  0  0  0  0  0  0  0  0
    3.1923   -3.5253   -0.3975 H   0  0  0  0  0  0  0  0  0  0  0  0
  1  2  1  0
  2  3  1  0
  3  4  2  0
  4  5  1  0
  5  6  2  0
  6  7  1  0
  7  8  2  0
  7  9  2  0
  7 10  1  0
 10 11  2  0
 11 12  1  0
 12 13  2  0
 13 14  1  0
 14 15  1  0
 13 16  1  0
 16 17  1  0
 17 18  1  0
 16 19  2  0
  6 20  1  0
 20 21  2  0
 21 22  1  0
 22 23  1  0
 21  3  1  0
 19 10  1  0
  1 24  1  0
  1 25  1  0
  1 26  1  0
  4 27  1  0
  5 28  1  0
 11 29  1  0
 12 30  1  0
 15 31  1  0
 15 32  1  0
 15 33  1  0
 18 34  1  0
 18 35  1  0
 18 36  1  0
 19 37  1  0
 20 38  1  0
 23 39  1  0
 23 40  1  0
 23 41  1  0
M  END
>  <docking_id>  (27) 
MAPK1_r27_cid848054

>  <target>  (27) 
MAPK1

>  <compound_id>  (27) 
848054

>  <admet_priority_rank>  (27) 
27

>  <priority_score>  (27) 
0.7285879694804147

>  <ensemble_calibrated_mean>  (27) 
0.0427956995704481

>  <admet_support_score>  (27) 
0.7595728716437959

>  <toxicity_burden>  (27) 
0.32182849016

>  <label>  (27) 
1

$$$$
MAPK1_r28_cid852945
     RDKit          3D

 29 31  0  0  0  0  0  0  0  0999 V2000
   -5.8202   -0.7140   -0.2108 N   0  0  0  0  0  0  0  0  0  0  0  0
   -4.4437   -0.4713   -0.2587 C   0  0  0  0  0  0  0  0  0  0  0  0
   -3.9104    0.6813    0.3163 C   0  0  0  0  0  0  0  0  0  0  0  0
   -2.5255    0.8740    0.3759 C   0  0  0  0  0  0  0  0  0  0  0  0
   -1.6379   -0.1033   -0.0944 C   0  0  0  0  0  0  0  0  0  0  0  0
   -0.1935    0.1427   -0.0074 C   0  0  0  0  0  0  0  0  0  0  0  0
    0.3757    1.2894    0.3217 N   0  0  0  0  0  0  0  0  0  0  0  0
    1.7370    1.0821    0.2843 C   0  0  0  0  0  0  0  0  0  0  0  0
    2.8268    1.9347    0.5140 C   0  0  0  0  0  0  0  0  0  0  0  0
    2.4676    3.5575    0.9042 Cl  0  0  0  0  0  0  0  0  0  0  0  0
    4.1372    1.4615    0.4104 C   0  0  0  0  0  0  0  0  0  0  0  0
    4.3821    0.1164    0.1182 C   0  0  0  0  0  0  0  0  0  0  0  0
    5.6969   -0.3218   -0.0961 N   0  0  0  0  0  0  0  0  0  0  0  0
    3.3113   -0.7447   -0.1761 C   0  0  0  0  0  0  0  0  0  0  0  0
    2.0116   -0.2353   -0.0627 C   0  0  0  0  0  0  0  0  0  0  0  0
    0.7776   -0.8033   -0.2491 N   0  0  0  0  0  0  0  0  0  0  0  0
   -2.1779   -1.2846   -0.6189 C   0  0  0  0  0  0  0  0  0  0  0  0
   -3.5659   -1.4713   -0.6791 C   0  0  0  0  0  0  0  0  0  0  0  0
   -6.3831    0.1310   -0.1884 H   0  0  0  0  0  0  0  0  0  0  0  0
   -6.1475   -1.3749   -0.9080 H   0  0  0  0  0  0  0  0  0  0  0  0
   -4.5647    1.4479    0.7225 H   0  0  0  0  0  0  0  0  0  0  0  0
   -2.1379    1.7956    0.8088 H   0  0  0  0  0  0  0  0  0  0  0  0
    4.9636    2.1495    0.5627 H   0  0  0  0  0  0  0  0  0  0  0  0
    5.8261   -1.3227    0.0151 H   0  0  0  0  0  0  0  0  0  0  0  0
    6.4000    0.2139    0.4047 H   0  0  0  0  0  0  0  0  0  0  0  0
    3.4854   -1.7717   -0.4795 H   0  0  0  0  0  0  0  0  0  0  0  0
    0.6098   -1.7635   -0.5044 H   0  0  0  0  0  0  0  0  0  0  0  0
   -1.5446   -2.0845   -0.9884 H   0  0  0  0  0  0  0  0  0  0  0  0
   -3.9560   -2.4104   -1.0631 H   0  0  0  0  0  0  0  0  0  0  0  0
  1  2  1  0
  2  3  2  0
  3  4  1  0
  4  5  2  0
  5  6  1  0
  6  7  2  0
  7  8  1  0
  8  9  2  0
  9 10  1  0
  9 11  1  0
 11 12  2  0
 12 13  1  0
 12 14  1  0
 14 15  2  0
 15 16  1  0
  5 17  1  0
 17 18  2  0
 18  2  1  0
 16  6  1  0
 15  8  1  0
  1 19  1  0
  1 20  1  0
  3 21  1  0
  4 22  1  0
 11 23  1  0
 13 24  1  0
 13 25  1  0
 14 26  1  0
 16 27  1  0
 17 28  1  0
 18 29  1  0
M  END
>  <docking_id>  (28) 
MAPK1_r28_cid852945

>  <target>  (28) 
MAPK1

>  <compound_id>  (28) 
852945

>  <admet_priority_rank>  (28) 
28

>  <priority_score>  (28) 
0.7336946715497488

>  <ensemble_calibrated_mean>  (28) 
0.0427956995704481

>  <admet_support_score>  (28) 
0.5849333640670191

>  <toxicity_burden>  (28) 
0.6991256088

>  <label>  (28) 
0

$$$$
MAPK1_r29_cid7976150
     RDKit          3D

 33 34  0  0  0  0  0  0  0  0999 V2000
    3.6225    0.5331    1.7057 C   0  0  0  0  0  0  0  0  0  0  0  0
    3.9760    0.9579    0.4847 C   0  0  0  0  0  0  0  0  0  0  0  0
    3.3809    2.1491   -0.2015 C   0  0  0  0  0  0  0  0  0  0  0  0
    2.6996    1.7051   -1.8305 S   0  0  0  0  0  0  0  0  0  0  0  0
    1.4939    0.4774   -1.3537 C   0  0  0  0  0  0  0  0  0  0  0  0
    1.8717   -0.7915   -1.6436 N   0  0  0  0  0  0  0  0  0  0  0  0
    1.0572   -1.8157   -1.3397 C   0  0  0  0  0  0  0  0  0  0  0  0
    1.5399   -3.0848   -1.6728 N   0  0  0  0  0  0  0  0  0  0  0  0
   -0.1854   -1.6102   -0.7378 C   0  0  0  0  0  0  0  0  0  0  0  0
   -1.0175   -2.7371   -0.4325 C   0  0  0  0  0  0  0  0  0  0  0  0
   -1.6569   -3.6773   -0.2003 N   0  0  0  0  0  0  0  0  0  0  0  0
   -0.5990   -0.2931   -0.4420 C   0  0  0  0  0  0  0  0  0  0  0  0
   -1.9060   -0.0401    0.1911 C   0  0  0  0  0  0  0  0  0  0  0  0
   -2.0324   -0.0254    1.5891 C   0  0  0  0  0  0  0  0  0  0  0  0
   -3.2710    0.2133    2.1875 C   0  0  0  0  0  0  0  0  0  0  0  0
   -4.3957    0.4400    1.3974 C   0  0  0  0  0  0  0  0  0  0  0  0
   -4.2850    0.4288    0.0089 C   0  0  0  0  0  0  0  0  0  0  0  0
   -3.0478    0.1901   -0.5924 C   0  0  0  0  0  0  0  0  0  0  0  0
    0.2667    0.7736   -0.7659 C   0  0  0  0  0  0  0  0  0  0  0  0
   -0.1091    2.1312   -0.4975 C   0  0  0  0  0  0  0  0  0  0  0  0
   -0.4004    3.2299   -0.2628 N   0  0  0  0  0  0  0  0  0  0  0  0
    4.0992   -0.3391    2.1441 H   0  0  0  0  0  0  0  0  0  0  0  0
    2.8665    1.0411    2.2960 H   0  0  0  0  0  0  0  0  0  0  0  0
    4.7492    0.4137   -0.0564 H   0  0  0  0  0  0  0  0  0  0  0  0
    4.1666    2.8944   -0.3624 H   0  0  0  0  0  0  0  0  0  0  0  0
    2.6062    2.6243    0.4080 H   0  0  0  0  0  0  0  0  0  0  0  0
    1.6158   -3.6840   -0.8547 H   0  0  0  0  0  0  0  0  0  0  0  0
    0.9324   -3.5510   -2.3423 H   0  0  0  0  0  0  0  0  0  0  0  0
   -1.1685   -0.1990    2.2275 H   0  0  0  0  0  0  0  0  0  0  0  0
   -3.3594    0.2233    3.2712 H   0  0  0  0  0  0  0  0  0  0  0  0
   -5.3597    0.6268    1.8644 H   0  0  0  0  0  0  0  0  0  0  0  0
   -5.1636    0.6074   -0.6064 H   0  0  0  0  0  0  0  0  0  0  0  0
   -2.9866    0.1877   -1.6790 H   0  0  0  0  0  0  0  0  0  0  0  0
  1  2  2  0
  2  3  1  0
  3  4  1  0
  4  5  1  0
  5  6  2  0
  6  7  1  0
  7  8  1  0
  7  9  2  0
  9 10  1  0
 10 11  3  0
  9 12  1  0
 12 13  1  0
 13 14  2  0
 14 15  1  0
 15 16  2  0
 16 17  1  0
 17 18  2  0
 12 19  2  0
 19 20  1  0
 20 21  3  0
 19  5  1  0
 18 13  1  0
  1 22  1  0
  1 23  1  0
  2 24  1  0
  3 25  1  0
  3 26  1  0
  8 27  1  0
  8 28  1  0
 14 29  1  0
 15 30  1  0
 16 31  1  0
 17 32  1  0
 18 33  1  0
M  END
>  <docking_id>  (29) 
MAPK1_r29_cid7976150

>  <target>  (29) 
MAPK1

>  <compound_id>  (29) 
7976150

>  <admet_priority_rank>  (29) 
29

>  <priority_score>  (29) 
0.7252625852296961

>  <ensemble_calibrated_mean>  (29) 
0.0427956995704481

>  <admet_support_score>  (29) 
0.6720827727999361

>  <toxicity_burden>  (29) 
0.40999250264

>  <label>  (29) 
0

$$$$
MAPK1_r30_cid3715176
     RDKit          3D

 49 51  0  0  0  0  0  0  0  0999 V2000
   -6.6623    1.5279    0.6714 C   0  0  0  0  0  0  0  0  0  0  0  0
   -5.2458    0.9832    0.6020 C   0  0  0  0  0  0  0  0  0  0  0  0
   -5.1232    0.0746   -0.5640 N   0  0  0  0  0  0  0  0  0  0  0  0
   -4.8418   -1.3413   -0.2300 C   0  0  0  0  0  0  0  0  0  0  0  0
   -6.0865   -2.0124    0.3281 C   0  0  0  0  0  0  0  0  0  0  0  0
   -4.3839    0.7049   -1.9642 S   0  0  0  0  0  0  0  0  0  0  0  0
   -4.5348   -0.2612   -3.0320 O   0  0  0  0  0  0  0  0  0  0  0  0
   -4.8153    2.0765   -2.1299 O   0  0  0  0  0  0  0  0  0  0  0  0
   -2.6524    0.7363   -1.5268 C   0  0  0  0  0  0  0  0  0  0  0  0
   -1.8500   -0.3762   -1.8053 C   0  0  0  0  0  0  0  0  0  0  0  0
   -0.4859   -0.3427   -1.4998 C   0  0  0  0  0  0  0  0  0  0  0  0
    0.0756    0.8041   -0.9195 C   0  0  0  0  0  0  0  0  0  0  0  0
    1.5271    0.8885   -0.5817 C   0  0  0  0  0  0  0  0  0  0  0  0
    2.0758    1.9798   -0.6677 O   0  0  0  0  0  0  0  0  0  0  0  0
    2.0992   -0.2973   -0.1567 N   0  0  0  0  0  0  0  0  0  0  0  0
    3.4509   -0.5204    0.1854 C   0  0  0  0  0  0  0  0  0  0  0  0
    3.7811   -1.7933    0.6745 C   0  0  0  0  0  0  0  0  0  0  0  0
    5.0974   -2.1059    1.0256 C   0  0  0  0  0  0  0  0  0  0  0  0
    6.0960   -1.1487    0.8846 C   0  0  0  0  0  0  0  0  0  0  0  0
    5.7734    0.1288    0.4201 C   0  0  0  0  0  0  0  0  0  0  0  0
    4.4596    0.4374    0.0569 C   0  0  0  0  0  0  0  0  0  0  0  0
    6.7017    1.1310    0.2841 O   0  0  0  0  0  0  0  0  0  0  0  0
    7.9057    0.8286    0.9968 C   0  0  0  0  0  0  0  0  0  0  0  0
    8.3403   -0.6024    0.7279 C   0  0  0  0  0  0  0  0  0  0  0  0
    7.3680   -1.5291    1.2261 O   0  0  0  0  0  0  0  0  0  0  0  0
   -0.7290    1.9286   -0.6845 C   0  0  0  0  0  0  0  0  0  0  0  0
   -2.0914    1.8992   -0.9918 C   0  0  0  0  0  0  0  0  0  0  0  0
   -7.3938    0.7199    0.7725 H   0  0  0  0  0  0  0  0  0  0  0  0
   -6.9146    2.0933   -0.2313 H   0  0  0  0  0  0  0  0  0  0  0  0
   -6.7706    2.1950    1.5321 H   0  0  0  0  0  0  0  0  0  0  0  0
   -4.5379    1.8140    0.5379 H   0  0  0  0  0  0  0  0  0  0  0  0
   -5.0076    0.4565    1.5328 H   0  0  0  0  0  0  0  0  0  0  0  0
   -4.0182   -1.4031    0.4899 H   0  0  0  0  0  0  0  0  0  0  0  0
   -4.5371   -1.8983   -1.1213 H   0  0  0  0  0  0  0  0  0  0  0  0
   -6.9245   -1.9278   -0.3717 H   0  0  0  0  0  0  0  0  0  0  0  0
   -5.8952   -3.0752    0.5067 H   0  0  0  0  0  0  0  0  0  0  0  0
   -6.3943   -1.5645    1.2779 H   0  0  0  0  0  0  0  0  0  0  0  0
   -2.2737   -1.2592   -2.2804 H   0  0  0  0  0  0  0  0  0  0  0  0
    0.1298   -1.1998   -1.7607 H   0  0  0  0  0  0  0  0  0  0  0  0
    1.4796   -1.0820   -0.0093 H   0  0  0  0  0  0  0  0  0  0  0  0
    3.0214   -2.5621    0.7881 H   0  0  0  0  0  0  0  0  0  0  0  0
    5.3441   -3.0965    1.3973 H   0  0  0  0  0  0  0  0  0  0  0  0
    4.2571    1.4355   -0.3172 H   0  0  0  0  0  0  0  0  0  0  0  0
    7.7319    1.0019    2.0660 H   0  0  0  0  0  0  0  0  0  0  0  0
    8.6763    1.5282    0.6584 H   0  0  0  0  0  0  0  0  0  0  0  0
    9.2876   -0.8119    1.2345 H   0  0  0  0  0  0  0  0  0  0  0  0
    8.4783   -0.7855   -0.3450 H   0  0  0  0  0  0  0  0  0  0  0  0
   -0.2900    2.8359   -0.2711 H   0  0  0  0  0  0  0  0  0  0  0  0
   -2.6980    2.7871   -0.8248 H   0  0  0  0  0  0  0  0  0  0  0  0
  1  2  1  0
  2  3  1  0
  3  4  1  0
  4  5  1  0
  3  6  1  0
  6  7  2  0
  6  8  2  0
  6  9  1  0
  9 10  2  0
 10 11  1  0
 11 12  2  0
 12 13  1  0
 13 14  2  0
 13 15  1  0
 15 16  1  0
 16 17  2  0
 17 18  1  0
 18 19  2  0
 19 20  1  0
 20 21  2  0
 20 22  1  0
 22 23  1  0
 23 24  1  0
 24 25  1  0
 12 26  1  0
 26 27  2  0
 27  9  1  0
 21 16  1  0
 25 19  1  0
  1 28  1  0
  1 29  1  0
  1 30  1  0
  2 31  1  0
  2 32  1  0
  4 33  1  0
  4 34  1  0
  5 35  1  0
  5 36  1  0
  5 37  1  0
 10 38  1  0
 11 39  1  0
 15 40  1  0
 17 41  1  0
 18 42  1  0
 21 43  1  0
 23 44  1  0
 23 45  1  0
 24 46  1  0
 24 47  1  0
 26 48  1  0
 27 49  1  0
M  END
>  <docking_id>  (30) 
MAPK1_r30_cid3715176

>  <target>  (30) 
MAPK1

>  <compound_id>  (30) 
3715176

>  <admet_priority_rank>  (30) 
30

>  <priority_score>  (30) 
0.7153440591075969

>  <ensemble_calibrated_mean>  (30) 
0.0421305848381568

>  <admet_support_score>  (30) 
0.6845407588129946

>  <toxicity_burden>  (30) 
0.43835852872

>  <label>  (30) 
0

$$$$
