PKM2_r01_cid7966421
     RDKit          3D

 36 38  0  0  0  0  0  0  0  0999 V2000
    3.9025    1.3617    2.1082 C   0  0  0  0  0  0  0  0  0  0  0  0
    3.2590    0.7847    0.8842 C   0  0  0  0  0  0  0  0  0  0  0  0
    2.5808    1.6010   -0.0276 C   0  0  0  0  0  0  0  0  0  0  0  0
    2.0108    1.0485   -1.1784 C   0  0  0  0  0  0  0  0  0  0  0  0
    2.1189   -0.3217   -1.4281 C   0  0  0  0  0  0  0  0  0  0  0  0
    1.5022   -0.8526   -2.5949 N   0  0  0  0  0  0  0  0  0  0  0  0
    0.2874   -2.0147   -2.4527 S   0  0  0  0  0  0  0  0  0  0  0  0
   -0.3594   -2.0860   -3.7454 O   0  0  0  0  0  0  0  0  0  0  0  0
    0.8214   -3.1961   -1.8115 O   0  0  0  0  0  0  0  0  0  0  0  0
   -0.8624   -1.2493   -1.3282 C   0  0  0  0  0  0  0  0  0  0  0  0
   -0.8738   -1.6394    0.0306 C   0  0  0  0  0  0  0  0  0  0  0  0
   -1.7696   -1.0482    0.9270 C   0  0  0  0  0  0  0  0  0  0  0  0
   -2.6250   -0.0935    0.4193 C   0  0  0  0  0  0  0  0  0  0  0  0
   -2.6209    0.2752   -0.9125 C   0  0  0  0  0  0  0  0  0  0  0  0
   -1.7543   -0.2892   -1.8223 C   0  0  0  0  0  0  0  0  0  0  0  0
   -3.5639    1.2486   -1.2009 O   0  0  0  0  0  0  0  0  0  0  0  0
   -4.1672    1.4701    0.0475 C   0  0  0  0  0  0  0  0  0  0  0  0
   -5.0675    2.2812    0.2144 O   0  0  0  0  0  0  0  0  0  0  0  0
   -3.6026    0.6649    1.0157 N   0  0  0  0  0  0  0  0  0  0  0  0
   -3.9697    0.6155    2.4015 C   0  0  0  0  0  0  0  0  0  0  0  0
    2.8099   -1.1384   -0.5381 C   0  0  0  0  0  0  0  0  0  0  0  0
    3.3743   -0.5796    0.6046 C   0  0  0  0  0  0  0  0  0  0  0  0
    4.0410   -1.3768    1.4516 F   0  0  0  0  0  0  0  0  0  0  0  0
    4.9738    1.5049    1.9365 H   0  0  0  0  0  0  0  0  0  0  0  0
    3.4591    2.3285    2.3691 H   0  0  0  0  0  0  0  0  0  0  0  0
    3.7630    0.6983    2.9681 H   0  0  0  0  0  0  0  0  0  0  0  0
    2.4912    2.6706    0.1518 H   0  0  0  0  0  0  0  0  0  0  0  0
    1.4802    1.6999   -1.8680 H   0  0  0  0  0  0  0  0  0  0  0  0
    1.3539   -0.2332   -3.3901 H   0  0  0  0  0  0  0  0  0  0  0  0
   -0.1826   -2.4007    0.3900 H   0  0  0  0  0  0  0  0  0  0  0  0
   -1.7826   -1.3372    1.9716 H   0  0  0  0  0  0  0  0  0  0  0  0
   -1.7719    0.0003   -2.8673 H   0  0  0  0  0  0  0  0  0  0  0  0
   -4.7757    1.3247    2.6090 H   0  0  0  0  0  0  0  0  0  0  0  0
   -4.3112   -0.3938    2.6497 H   0  0  0  0  0  0  0  0  0  0  0  0
   -3.1017    0.8733    3.0155 H   0  0  0  0  0  0  0  0  0  0  0  0
    2.9327   -2.2016   -0.7193 H   0  0  0  0  0  0  0  0  0  0  0  0
  1  2  1  0
  2  3  2  0
  3  4  1  0
  4  5  2  0
  5  6  1  0
  6  7  1  0
  7  8  2  0
  7  9  2  0
  7 10  1  0
 10 11  2  0
 11 12  1  0
 12 13  2  0
 13 14  1  0
 14 15  2  0
 14 16  1  0
 16 17  1  0
 17 18  2  0
 17 19  1  0
 19 20  1  0
  5 21  1  0
 21 22  2  0
 22 23  1  0
 22  2  1  0
 15 10  1  0
 19 13  1  0
  1 24  1  0
  1 25  1  0
  1 26  1  0
  3 27  1  0
  4 28  1  0
  6 29  1  0
 11 30  1  0
 12 31  1  0
 15 32  1  0
 20 33  1  0
 20 34  1  0
 20 35  1  0
 21 36  1  0
M  END
>  <docking_id>  (1) 
PKM2_r01_cid7966421

>  <target>  (1) 
PKM2

>  <compound_id>  (1) 
7966421

>  <admet_priority_rank>  (1) 
1

>  <priority_score>  (1) 
0.9418679003378738

>  <ensemble_calibrated_mean>  (1) 
0.8336433887481689

>  <admet_support_score>  (1) 
0.7457482297413494

>  <toxicity_burden>  (1) 
0.344159769148

>  <label>  (1) 
1

$$$$
PKM2_r02_cid24787185
     RDKit          3D

 33 35  0  0  0  0  0  0  0  0999 V2000
    4.3624   -1.3412   -1.0490 C   0  0  0  0  0  0  0  0  0  0  0  0
    3.2210   -0.5005   -1.2660 N   0  0  0  0  0  0  0  0  0  0  0  0
    2.7980    0.0080   -2.4777 C   0  0  0  0  0  0  0  0  0  0  0  0
    3.3239   -0.1840   -3.5655 O   0  0  0  0  0  0  0  0  0  0  0  0
    1.6503    0.7991   -2.3146 O   0  0  0  0  0  0  0  0  0  0  0  0
    1.4248    0.7268   -0.9493 C   0  0  0  0  0  0  0  0  0  0  0  0
    0.3959    1.3476   -0.2765 C   0  0  0  0  0  0  0  0  0  0  0  0
    0.3302    1.1376    1.1069 C   0  0  0  0  0  0  0  0  0  0  0  0
   -0.9680    1.9161    2.0471 S   0  0  0  0  0  0  0  0  0  0  0  0
   -1.4617    3.0397    1.2818 O   0  0  0  0  0  0  0  0  0  0  0  0
   -0.4742    2.0876    3.3976 O   0  0  0  0  0  0  0  0  0  0  0  0
   -2.1499    0.7160    2.1302 N   0  0  0  0  0  0  0  0  0  0  0  0
   -2.6258    0.1106    0.9352 C   0  0  0  0  0  0  0  0  0  0  0  0
   -3.2904    0.8596   -0.0352 C   0  0  0  0  0  0  0  0  0  0  0  0
   -3.7129    0.2503   -1.2176 C   0  0  0  0  0  0  0  0  0  0  0  0
   -3.4728   -1.1070   -1.4278 C   0  0  0  0  0  0  0  0  0  0  0  0
   -2.8143   -1.8578   -0.4545 C   0  0  0  0  0  0  0  0  0  0  0  0
   -2.3916   -1.2500    0.7289 C   0  0  0  0  0  0  0  0  0  0  0  0
    1.2944    0.3540    1.7816 C   0  0  0  0  0  0  0  0  0  0  0  0
    2.3300   -0.2585    1.0685 C   0  0  0  0  0  0  0  0  0  0  0  0
    2.3597   -0.0520   -0.2947 C   0  0  0  0  0  0  0  0  0  0  0  0
    5.0599   -0.8373   -0.3734 H   0  0  0  0  0  0  0  0  0  0  0  0
    4.8706   -1.5482   -1.9949 H   0  0  0  0  0  0  0  0  0  0  0  0
    4.0368   -2.2868   -0.6056 H   0  0  0  0  0  0  0  0  0  0  0  0
   -0.3276    1.9613   -0.8028 H   0  0  0  0  0  0  0  0  0  0  0  0
   -2.0558    0.1333    2.9597 H   0  0  0  0  0  0  0  0  0  0  0  0
   -3.4924    1.9167    0.1204 H   0  0  0  0  0  0  0  0  0  0  0  0
   -4.2308    0.8358   -1.9735 H   0  0  0  0  0  0  0  0  0  0  0  0
   -3.8019   -1.5798   -2.3503 H   0  0  0  0  0  0  0  0  0  0  0  0
   -2.6297   -2.9164   -0.6199 H   0  0  0  0  0  0  0  0  0  0  0  0
   -1.8738   -1.8464    1.4742 H   0  0  0  0  0  0  0  0  0  0  0  0
    1.2410    0.2273    2.8618 H   0  0  0  0  0  0  0  0  0  0  0  0
    3.0747   -0.8615    1.5751 H   0  0  0  0  0  0  0  0  0  0  0  0
  1  2  1  0
  2  3  1  0
  3  4  2  0
  3  5  1  0
  5  6  1  0
  6  7  2  0
  7  8  1  0
  8  9  1  0
  9 10  2  0
  9 11  2  0
  9 12  1  0
 12 13  1  0
 13 14  2  0
 14 15  1  0
 15 16  2  0
 16 17  1  0
 17 18  2  0
  8 19  2  0
 19 20  1  0
 20 21  2  0
 21  2  1  0
 21  6  1  0
 18 13  1  0
  1 22  1  0
  1 23  1  0
  1 24  1  0
  7 25  1  0
 12 26  1  0
 14 27  1  0
 15 28  1  0
 16 29  1  0
 17 30  1  0
 18 31  1  0
 19 32  1  0
 20 33  1  0
M  END
>  <docking_id>  (2) 
PKM2_r02_cid24787185

>  <target>  (2) 
PKM2

>  <compound_id>  (2) 
24787185

>  <admet_priority_rank>  (2) 
2

>  <priority_score>  (2) 
0.8476600339510393

>  <ensemble_calibrated_mean>  (2) 
0.7681818127632141

>  <admet_support_score>  (2) 
0.732710208742533

>  <toxicity_burden>  (2) 
0.31457639164

>  <label>  (2) 
1

$$$$
PKM2_r03_cid49735565
     RDKit          3D

 42 44  0  0  0  0  0  0  0  0999 V2000
    0.8187   -1.4745    2.1716 C   0  0  0  0  0  0  0  0  0  0  0  0
   -0.1344   -0.9736    1.1224 C   0  0  0  0  0  0  0  0  0  0  0  0
   -1.2312   -0.1951    1.5395 C   0  0  0  0  0  0  0  0  0  0  0  0
   -2.1886    0.3138    0.6383 C   0  0  0  0  0  0  0  0  0  0  0  0
   -2.0526    0.0287   -0.7284 C   0  0  0  0  0  0  0  0  0  0  0  0
   -0.9639   -0.7507   -1.1525 C   0  0  0  0  0  0  0  0  0  0  0  0
   -0.0093   -1.2436   -0.2448 C   0  0  0  0  0  0  0  0  0  0  0  0
    1.3083   -2.2301   -0.9441 S   0  0  0  0  0  0  0  0  0  0  0  0
    2.0305   -2.9307    0.0924 O   0  0  0  0  0  0  0  0  0  0  0  0
    0.7408   -2.9589   -2.0604 O   0  0  0  0  0  0  0  0  0  0  0  0
    2.3121   -1.0532   -1.6327 N   0  0  0  0  0  0  0  0  0  0  0  0
    3.1749   -0.3261   -0.7705 C   0  0  0  0  0  0  0  0  0  0  0  0
    4.4060   -0.8632   -0.3898 C   0  0  0  0  0  0  0  0  0  0  0  0
    5.2295   -0.1513    0.4837 C   0  0  0  0  0  0  0  0  0  0  0  0
    4.8124    1.0851    0.9655 C   0  0  0  0  0  0  0  0  0  0  0  0
    5.6025    1.7664    1.8047 F   0  0  0  0  0  0  0  0  0  0  0  0
    3.5857    1.6241    0.5917 C   0  0  0  0  0  0  0  0  0  0  0  0
    2.7598    0.9136   -0.2799 C   0  0  0  0  0  0  0  0  0  0  0  0
   -3.0032    0.5224   -1.6633 N   0  0  0  0  0  0  0  0  0  0  0  0
   -2.8751    0.2152   -3.0805 C   0  0  0  0  0  0  0  0  0  0  0  0
   -4.0871    1.3031   -1.2654 C   0  0  0  0  0  0  0  0  0  0  0  0
   -4.9245    1.7510   -2.0447 O   0  0  0  0  0  0  0  0  0  0  0  0
   -4.2340    1.6184    0.2277 C   0  0  0  0  0  0  0  0  0  0  0  0
   -5.1826    2.3096    0.5906 O   0  0  0  0  0  0  0  0  0  0  0  0
   -3.2774    1.1031    1.1007 N   0  0  0  0  0  0  0  0  0  0  0  0
   -3.4267    1.3997    2.5175 C   0  0  0  0  0  0  0  0  0  0  0  0
    0.5894   -1.0513    3.1561 H   0  0  0  0  0  0  0  0  0  0  0  0
    0.7449   -2.5620    2.2659 H   0  0  0  0  0  0  0  0  0  0  0  0
    1.8458   -1.1788    1.9418 H   0  0  0  0  0  0  0  0  0  0  0  0
   -1.3230    0.0062    2.6047 H   0  0  0  0  0  0  0  0  0  0  0  0
   -0.8327   -0.9923   -2.2048 H   0  0  0  0  0  0  0  0  0  0  0  0
    2.7093   -1.3945   -2.5085 H   0  0  0  0  0  0  0  0  0  0  0  0
    4.7230   -1.8384   -0.7501 H   0  0  0  0  0  0  0  0  0  0  0  0
    6.1874   -0.5552    0.7963 H   0  0  0  0  0  0  0  0  0  0  0  0
    3.2832    2.5914    0.9803 H   0  0  0  0  0  0  0  0  0  0  0  0
    1.8038    1.3355   -0.5772 H   0  0  0  0  0  0  0  0  0  0  0  0
   -3.6819    0.6554   -3.6733 H   0  0  0  0  0  0  0  0  0  0  0  0
   -2.9130   -0.8695   -3.2230 H   0  0  0  0  0  0  0  0  0  0  0  0
   -1.9293    0.6187   -3.4562 H   0  0  0  0  0  0  0  0  0  0  0  0
   -4.3082    2.0144    2.7208 H   0  0  0  0  0  0  0  0  0  0  0  0
   -2.5495    1.9525    2.8684 H   0  0  0  0  0  0  0  0  0  0  0  0
   -3.5396    0.4646    3.0754 H   0  0  0  0  0  0  0  0  0  0  0  0
  1  2  1  0
  2  3  2  0
  3  4  1  0
  4  5  2  0
  5  6  1  0
  6  7  2  0
  7  8  1  0
  8  9  2  0
  8 10  2  0
  8 11  1  0
 11 12  1  0
 12 13  2  0
 13 14  1  0
 14 15  2  0
 15 16  1  0
 15 17  1  0
 17 18  2  0
  5 19  1  0
 19 20  1  0
 19 21  1  0
 21 22  2  0
 21 23  1  0
 23 24  2  0
 23 25  1  0
 25 26  1  0
  7  2  1  0
 18 12  1  0
 25  4  1  0
  1 27  1  0
  1 28  1  0
  1 29  1  0
  3 30  1  0
  6 31  1  0
 11 32  1  0
 13 33  1  0
 14 34  1  0
 17 35  1  0
 18 36  1  0
 20 37  1  0
 20 38  1  0
 20 39  1  0
 26 40  1  0
 26 41  1  0
 26 42  1  0
M  END
>  <docking_id>  (3) 
PKM2_r03_cid49735565

>  <target>  (3) 
PKM2

>  <compound_id>  (3) 
49735565

>  <admet_priority_rank>  (3) 
3

>  <priority_score>  (3) 
0.8467099850219416

>  <ensemble_calibrated_mean>  (3) 
0.7681818127632141

>  <admet_support_score>  (3) 
0.7020251650392316

>  <toxicity_burden>  (3) 
0.37104948806

>  <label>  (3) 
1

$$$$
PKM2_r04_cid4245024
     RDKit          3D

 43 45  0  0  0  0  0  0  0  0999 V2000
   -4.2884    2.6133    0.1346 C   0  0  0  0  0  0  0  0  0  0  0  0
   -3.9824    1.5992    1.0852 O   0  0  0  0  0  0  0  0  0  0  0  0
   -3.3932    0.4610    0.6085 C   0  0  0  0  0  0  0  0  0  0  0  0
   -3.1224   -0.5070    1.5792 C   0  0  0  0  0  0  0  0  0  0  0  0
   -2.5151   -1.7143    1.2317 C   0  0  0  0  0  0  0  0  0  0  0  0
   -2.1656   -1.9577   -0.0948 C   0  0  0  0  0  0  0  0  0  0  0  0
   -2.4271   -0.9916   -1.0667 C   0  0  0  0  0  0  0  0  0  0  0  0
   -1.9982   -1.2282   -2.4031 N   0  0  0  0  0  0  0  0  0  0  0  0
   -0.7856   -0.2593   -3.0692 S   0  0  0  0  0  0  0  0  0  0  0  0
   -0.3625   -0.9221   -4.2845 O   0  0  0  0  0  0  0  0  0  0  0  0
   -1.2137    1.1227   -3.0760 O   0  0  0  0  0  0  0  0  0  0  0  0
    0.5413   -0.4090   -1.8914 C   0  0  0  0  0  0  0  0  0  0  0  0
    1.5098   -1.3904   -2.0612 C   0  0  0  0  0  0  0  0  0  0  0  0
    2.5464   -1.4892   -1.1322 C   0  0  0  0  0  0  0  0  0  0  0  0
    2.6295   -0.6155   -0.0292 C   0  0  0  0  0  0  0  0  0  0  0  0
    1.6500    0.3841    0.1290 C   0  0  0  0  0  0  0  0  0  0  0  0
    0.6201    0.4878   -0.8217 C   0  0  0  0  0  0  0  0  0  0  0  0
    1.7025    1.2698    1.2398 N   0  0  0  0  0  0  0  0  0  0  0  0
    0.6748    2.2855    1.4225 C   0  0  0  0  0  0  0  0  0  0  0  0
    2.7122    1.1892    2.1966 C   0  0  0  0  0  0  0  0  0  0  0  0
    2.7831    1.9292    3.1747 O   0  0  0  0  0  0  0  0  0  0  0  0
    3.7898    0.1138    2.0142 C   0  0  0  0  0  0  0  0  0  0  0  0
    4.6930    0.0416    2.8440 O   0  0  0  0  0  0  0  0  0  0  0  0
    3.6871   -0.7349    0.9131 N   0  0  0  0  0  0  0  0  0  0  0  0
    4.7115   -1.7549    0.7476 C   0  0  0  0  0  0  0  0  0  0  0  0
   -3.0483    0.2114   -0.7199 C   0  0  0  0  0  0  0  0  0  0  0  0
   -3.3789    2.9931   -0.3425 H   0  0  0  0  0  0  0  0  0  0  0  0
   -5.0063    2.2530   -0.6095 H   0  0  0  0  0  0  0  0  0  0  0  0
   -4.7546    3.4448    0.6720 H   0  0  0  0  0  0  0  0  0  0  0  0
   -3.3907   -0.3175    2.6166 H   0  0  0  0  0  0  0  0  0  0  0  0
   -2.3126   -2.4585    1.9979 H   0  0  0  0  0  0  0  0  0  0  0  0
   -1.6807   -2.8948   -0.3524 H   0  0  0  0  0  0  0  0  0  0  0  0
   -1.9464   -2.1925   -2.7278 H   0  0  0  0  0  0  0  0  0  0  0  0
    1.4749   -2.0746   -2.9065 H   0  0  0  0  0  0  0  0  0  0  0  0
    3.2860   -2.2679   -1.2990 H   0  0  0  0  0  0  0  0  0  0  0  0
   -0.1438    1.2565   -0.7425 H   0  0  0  0  0  0  0  0  0  0  0  0
   -0.3026    1.8019    1.5191 H   0  0  0  0  0  0  0  0  0  0  0  0
    0.8398    2.8818    2.3243 H   0  0  0  0  0  0  0  0  0  0  0  0
    0.6819    2.9688    0.5674 H   0  0  0  0  0  0  0  0  0  0  0  0
    5.2332   -1.5965   -0.2017 H   0  0  0  0  0  0  0  0  0  0  0  0
    5.4590   -1.7239    1.5454 H   0  0  0  0  0  0  0  0  0  0  0  0
    4.2458   -2.7454    0.7684 H   0  0  0  0  0  0  0  0  0  0  0  0
   -3.2527    0.9371   -1.5003 H   0  0  0  0  0  0  0  0  0  0  0  0
  1  2  1  0
  2  3  1  0
  3  4  2  0
  4  5  1  0
  5  6  2  0
  6  7  1  0
  7  8  1  0
  8  9  1  0
  9 10  2  0
  9 11  2  0
  9 12  1  0
 12 13  2  0
 13 14  1  0
 14 15  2  0
 15 16  1  0
 16 17  2  0
 16 18  1  0
 18 19  1  0
 18 20  1  0
 20 21  2  0
 20 22  1  0
 22 23  2  0
 22 24  1  0
 24 25  1  0
  7 26  2  0
 26  3  1  0
 17 12  1  0
 24 15  1  0
  1 27  1  0
  1 28  1  0
  1 29  1  0
  4 30  1  0
  5 31  1  0
  6 32  1  0
  8 33  1  0
 13 34  1  0
 14 35  1  0
 17 36  1  0
 19 37  1  0
 19 38  1  0
 19 39  1  0
 25 40  1  0
 25 41  1  0
 25 42  1  0
 26 43  1  0
M  END
>  <docking_id>  (4) 
PKM2_r04_cid4245024

>  <target>  (4) 
PKM2

>  <compound_id>  (4) 
4245024

>  <admet_priority_rank>  (4) 
4

>  <priority_score>  (4) 
0.7375705126935798

>  <ensemble_calibrated_mean>  (4) 
0.5324675270489284

>  <admet_support_score>  (4) 
0.6496788775128304

>  <toxicity_burden>  (4) 
0.3811814868

>  <label>  (4) 
1

$$$$
PKM2_r05_cid47200821
     RDKit          3D

 41 43  0  0  0  0  0  0  0  0999 V2000
    6.5721    0.5255   -0.2446 C   0  0  0  0  0  0  0  0  0  0  0  0
    5.2210   -0.1276   -0.2085 C   0  0  0  0  0  0  0  0  0  0  0  0
    4.3659   -0.0440   -1.3163 C   0  0  0  0  0  0  0  0  0  0  0  0
    3.1235   -0.6788   -1.2992 C   0  0  0  0  0  0  0  0  0  0  0  0
    2.7389   -1.4060   -0.1701 C   0  0  0  0  0  0  0  0  0  0  0  0
    1.1539   -2.2019   -0.1606 S   0  0  0  0  0  0  0  0  0  0  0  0
    0.9319   -2.7881    1.1449 O   0  0  0  0  0  0  0  0  0  0  0  0
    1.0594   -2.9935   -1.3681 O   0  0  0  0  0  0  0  0  0  0  0  0
    0.0734   -0.8874   -0.3032 N   0  0  0  0  0  0  0  0  0  0  0  0
    0.0734    0.0764    0.8479 C   0  0  0  0  0  0  0  0  0  0  0  0
   -1.2418    0.0602    1.6340 C   0  0  0  0  0  0  0  0  0  0  0  0
   -2.3917    0.3511    0.7763 N   0  0  0  0  0  0  0  0  0  0  0  0
   -3.4987    0.9988    1.3336 C   0  0  0  0  0  0  0  0  0  0  0  0
   -3.5431    1.1951    2.5507 O   0  0  0  0  0  0  0  0  0  0  0  0
   -4.5889    1.4406    0.4750 C   0  0  0  0  0  0  0  0  0  0  0  0
   -5.8686    1.8480    0.8152 C   0  0  0  0  0  0  0  0  0  0  0  0
   -6.5209    2.2183   -0.3842 C   0  0  0  0  0  0  0  0  0  0  0  0
   -5.6009    2.0347   -1.3871 C   0  0  0  0  0  0  0  0  0  0  0  0
   -4.4293    1.5744   -0.8800 O   0  0  0  0  0  0  0  0  0  0  0  0
   -2.3208   -0.1780   -0.5900 C   0  0  0  0  0  0  0  0  0  0  0  0
   -1.2968   -1.3120   -0.7336 C   0  0  0  0  0  0  0  0  0  0  0  0
    3.5875   -1.5170    0.9329 C   0  0  0  0  0  0  0  0  0  0  0  0
    4.8288   -0.8791    0.9085 C   0  0  0  0  0  0  0  0  0  0  0  0
    6.8884    0.8236    0.7605 H   0  0  0  0  0  0  0  0  0  0  0  0
    7.3114   -0.1674   -0.6579 H   0  0  0  0  0  0  0  0  0  0  0  0
    6.5516    1.4309   -0.8601 H   0  0  0  0  0  0  0  0  0  0  0  0
    4.6662    0.5144   -2.2008 H   0  0  0  0  0  0  0  0  0  0  0  0
    2.4650   -0.6103   -2.1622 H   0  0  0  0  0  0  0  0  0  0  0  0
    0.9029   -0.1173    1.5347 H   0  0  0  0  0  0  0  0  0  0  0  0
    0.2426    1.0749    0.4260 H   0  0  0  0  0  0  0  0  0  0  0  0
   -1.4117   -0.9264    2.0814 H   0  0  0  0  0  0  0  0  0  0  0  0
   -1.1864    0.7887    2.4500 H   0  0  0  0  0  0  0  0  0  0  0  0
   -6.2675    1.8714    1.8207 H   0  0  0  0  0  0  0  0  0  0  0  0
   -7.5317    2.5833   -0.5012 H   0  0  0  0  0  0  0  0  0  0  0  0
   -5.6213    2.1836   -2.4580 H   0  0  0  0  0  0  0  0  0  0  0  0
   -2.0438    0.6566   -1.2444 H   0  0  0  0  0  0  0  0  0  0  0  0
   -3.3040   -0.5536   -0.8895 H   0  0  0  0  0  0  0  0  0  0  0  0
   -1.2569   -1.6212   -1.7837 H   0  0  0  0  0  0  0  0  0  0  0  0
   -1.6222   -2.1694   -0.1314 H   0  0  0  0  0  0  0  0  0  0  0  0
    3.2969   -2.0971    1.8058 H   0  0  0  0  0  0  0  0  0  0  0  0
    5.4925   -0.9740    1.7659 H   0  0  0  0  0  0  0  0  0  0  0  0
  1  2  1  0
  2  3  2  0
  3  4  1  0
  4  5  2  0
  5  6  1  0
  6  7  2  0
  6  8  2  0
  6  9  1  0
  9 10  1  0
 10 11  1  0
 11 12  1  0
 12 13  1  0
 13 14  2  0
 13 15  1  0
 15 16  2  0
 16 17  1  0
 17 18  2  0
 18 19  1  0
 12 20  1  0
 20 21  1  0
  5 22  1  0
 22 23  2  0
 23  2  1  0
 21  9  1  0
 19 15  1  0
  1 24  1  0
  1 25  1  0
  1 26  1  0
  3 27  1  0
  4 28  1  0
 10 29  1  0
 10 30  1  0
 11 31  1  0
 11 32  1  0
 16 33  1  0
 17 34  1  0
 18 35  1  0
 20 36  1  0
 20 37  1  0
 21 38  1  0
 21 39  1  0
 22 40  1  0
 23 41  1  0
M  END
>  <docking_id>  (5) 
PKM2_r05_cid47200821

>  <target>  (5) 
PKM2

>  <compound_id>  (5) 
47200821

>  <admet_priority_rank>  (5) 
5

>  <priority_score>  (5) 
0.6334509550241861

>  <ensemble_calibrated_mean>  (5) 
0.2111111119389534

>  <admet_support_score>  (5) 
0.8051959828178237

>  <toxicity_burden>  (5) 
0.3893333376

>  <label>  (5) 
0

$$$$
PKM2_r06_cid24837285
     RDKit          3D

 45 46  0  0  0  0  0  0  0  0999 V2000
    4.6397   -0.4033   -3.0618 C   0  0  0  0  0  0  0  0  0  0  0  0
    4.8339    0.2499   -1.7080 C   0  0  0  0  0  0  0  0  0  0  0  0
    4.6723   -0.7195   -0.6311 N   0  0  0  0  0  0  0  0  0  0  0  0
    4.1971   -0.3864    0.6083 C   0  0  0  0  0  0  0  0  0  0  0  0
    5.0996   -0.9107    1.9183 S   0  0  0  0  0  0  0  0  0  0  0  0
    3.0118    0.3221    0.6730 N   0  0  0  0  0  0  0  0  0  0  0  0
    1.9726    0.1850   -0.3629 C   0  0  0  0  0  0  0  0  0  0  0  0
    0.5683    0.0397    0.2416 C   0  0  0  0  0  0  0  0  0  0  0  0
    0.1928    1.2386    1.0643 N   0  0  0  0  0  0  0  0  0  0  0  0
   -1.1077    0.9928    2.1462 S   0  0  0  0  0  0  0  0  0  0  0  0
   -1.4603    2.2744    2.7191 O   0  0  0  0  0  0  0  0  0  0  0  0
   -0.7569   -0.1310    2.9888 O   0  0  0  0  0  0  0  0  0  0  0  0
   -2.4296    0.5092    1.0668 C   0  0  0  0  0  0  0  0  0  0  0  0
   -2.9865    1.4604    0.2130 C   0  0  0  0  0  0  0  0  0  0  0  0
   -4.0244    1.0885   -0.6400 C   0  0  0  0  0  0  0  0  0  0  0  0
   -4.5154   -0.2284   -0.6437 C   0  0  0  0  0  0  0  0  0  0  0  0
   -5.6420   -0.5879   -1.5750 C   0  0  0  0  0  0  0  0  0  0  0  0
   -3.9550   -1.1836    0.2321 C   0  0  0  0  0  0  0  0  0  0  0  0
   -4.4591   -2.6010    0.2725 C   0  0  0  0  0  0  0  0  0  0  0  0
   -2.9102   -0.8025    1.0886 C   0  0  0  0  0  0  0  0  0  0  0  0
    1.3779    1.9093    1.7019 C   0  0  0  0  0  0  0  0  0  0  0  0
    2.5430    0.9393    1.9287 C   0  0  0  0  0  0  0  0  0  0  0  0
    4.7958    0.3247   -3.8637 H   0  0  0  0  0  0  0  0  0  0  0  0
    5.3459   -1.2280   -3.2048 H   0  0  0  0  0  0  0  0  0  0  0  0
    3.6280   -0.8102   -3.1589 H   0  0  0  0  0  0  0  0  0  0  0  0
    5.8543    0.6418   -1.6276 H   0  0  0  0  0  0  0  0  0  0  0  0
    4.1624    1.1018   -1.5818 H   0  0  0  0  0  0  0  0  0  0  0  0
    5.4798   -1.3268   -0.5367 H   0  0  0  0  0  0  0  0  0  0  0  0
    2.0098    1.0886   -0.9818 H   0  0  0  0  0  0  0  0  0  0  0  0
    2.1796   -0.6806   -0.9996 H   0  0  0  0  0  0  0  0  0  0  0  0
   -0.1550   -0.0633   -0.5739 H   0  0  0  0  0  0  0  0  0  0  0  0
    0.5356   -0.8684    0.8542 H   0  0  0  0  0  0  0  0  0  0  0  0
   -2.6194    2.4843    0.2108 H   0  0  0  0  0  0  0  0  0  0  0  0
   -4.4549    1.8375   -1.3021 H   0  0  0  0  0  0  0  0  0  0  0  0
   -5.3370   -1.3956   -2.2478 H   0  0  0  0  0  0  0  0  0  0  0  0
   -6.5219   -0.8996   -1.0036 H   0  0  0  0  0  0  0  0  0  0  0  0
   -5.9364    0.2638   -2.1976 H   0  0  0  0  0  0  0  0  0  0  0  0
   -5.5176   -2.6202    0.5500 H   0  0  0  0  0  0  0  0  0  0  0  0
   -4.3272   -3.0792   -0.7031 H   0  0  0  0  0  0  0  0  0  0  0  0
   -3.9142   -3.2007    1.0094 H   0  0  0  0  0  0  0  0  0  0  0  0
   -2.4755   -1.5283    1.7738 H   0  0  0  0  0  0  0  0  0  0  0  0
    1.1063    2.3787    2.6529 H   0  0  0  0  0  0  0  0  0  0  0  0
    1.6878    2.7212    1.0323 H   0  0  0  0  0  0  0  0  0  0  0  0
    2.2330    0.1318    2.6031 H   0  0  0  0  0  0  0  0  0  0  0  0
    3.3790    1.4719    2.3947 H   0  0  0  0  0  0  0  0  0  0  0  0
  1  2  1  0
  2  3  1  0
  3  4  1  0
  4  5  2  0
  4  6  1  0
  6  7  1  0
  7  8  1  0
  8  9  1  0
  9 10  1  0
 10 11  2  0
 10 12  2  0
 10 13  1  0
 13 14  2  0
 14 15  1  0
 15 16  2  0
 16 17  1  0
 16 18  1  0
 18 19  1  0
 18 20  2  0
  9 21  1  0
 21 22  1  0
 22  6  1  0
 20 13  1  0
  1 23  1  0
  1 24  1  0
  1 25  1  0
  2 26  1  0
  2 27  1  0
  3 28  1  0
  7 29  1  0
  7 30  1  0
  8 31  1  0
  8 32  1  0
 14 33  1  0
 15 34  1  0
 17 35  1  0
 17 36  1  0
 17 37  1  0
 19 38  1  0
 19 39  1  0
 19 40  1  0
 20 41  1  0
 21 42  1  0
 21 43  1  0
 22 44  1  0
 22 45  1  0
M  END
>  <docking_id>  (6) 
PKM2_r06_cid24837285

>  <target>  (6) 
PKM2

>  <compound_id>  (6) 
24837285

>  <admet_priority_rank>  (6) 
6

>  <priority_score>  (6) 
0.6353858156874542

>  <ensemble_calibrated_mean>  (6) 
0.2111111119389534

>  <admet_support_score>  (6) 
0.7613661969072557

>  <toxicity_burden>  (6) 
0.4226626181999999

>  <label>  (6) 
0

$$$$
PKM2_r07_cid49725559
     RDKit          3D

 30 31  0  0  0  0  0  0  0  0999 V2000
   -0.9796   -1.6578    2.4141 C   0  0  0  0  0  0  0  0  0  0  0  0
   -1.2462   -0.6766    1.3112 C   0  0  0  0  0  0  0  0  0  0  0  0
   -2.3527   -0.8394    0.4668 C   0  0  0  0  0  0  0  0  0  0  0  0
   -2.5934    0.0556   -0.5849 C   0  0  0  0  0  0  0  0  0  0  0  0
   -3.7587   -0.1525   -1.5070 C   0  0  0  0  0  0  0  0  0  0  0  0
   -1.6939    1.1049   -0.8078 C   0  0  0  0  0  0  0  0  0  0  0  0
   -0.5876    1.2685    0.0261 C   0  0  0  0  0  0  0  0  0  0  0  0
    0.3656    2.3029   -0.2295 N   0  0  0  0  0  0  0  0  0  0  0  0
    1.5647    1.9322   -1.3795 S   0  0  0  0  0  0  0  0  0  0  0  0
    0.9194    1.3954   -2.5600 O   0  0  0  0  0  0  0  0  0  0  0  0
    2.4256    3.0918   -1.4762 O   0  0  0  0  0  0  0  0  0  0  0  0
    2.5734    0.6091   -0.7550 C   0  0  0  0  0  0  0  0  0  0  0  0
    2.7281   -0.7044   -1.1574 C   0  0  0  0  0  0  0  0  0  0  0  0
    3.6476   -1.4191   -0.3372 C   0  0  0  0  0  0  0  0  0  0  0  0
    4.1640   -0.6276    0.6646 C   0  0  0  0  0  0  0  0  0  0  0  0
    3.5385    0.9646    0.6131 S   0  0  0  0  0  0  0  0  0  0  0  0
   -0.3574    0.3781    1.0738 C   0  0  0  0  0  0  0  0  0  0  0  0
   -1.9150   -2.0770    2.7992 H   0  0  0  0  0  0  0  0  0  0  0  0
   -0.4716   -1.1723    3.2541 H   0  0  0  0  0  0  0  0  0  0  0  0
   -0.3515   -2.4741    2.0443 H   0  0  0  0  0  0  0  0  0  0  0  0
   -3.0333   -1.6742    0.6279 H   0  0  0  0  0  0  0  0  0  0  0  0
   -4.5970   -0.6178   -0.9780 H   0  0  0  0  0  0  0  0  0  0  0  0
   -4.1167    0.8027   -1.9053 H   0  0  0  0  0  0  0  0  0  0  0  0
   -3.4649   -0.7966   -2.3415 H   0  0  0  0  0  0  0  0  0  0  0  0
   -1.8491    1.7783   -1.6474 H   0  0  0  0  0  0  0  0  0  0  0  0
   -0.0646    3.1839   -0.5125 H   0  0  0  0  0  0  0  0  0  0  0  0
    2.1969   -1.1229   -2.0047 H   0  0  0  0  0  0  0  0  0  0  0  0
    3.9177   -2.4592   -0.4758 H   0  0  0  0  0  0  0  0  0  0  0  0
    4.8809   -0.9049    1.4258 H   0  0  0  0  0  0  0  0  0  0  0  0
    0.5109    0.5085    1.7145 H   0  0  0  0  0  0  0  0  0  0  0  0
  1  2  1  0
  2  3  2  0
  3  4  1  0
  4  5  1  0
  4  6  2  0
  6  7  1  0
  7  8  1  0
  8  9  1  0
  9 10  2  0
  9 11  2  0
  9 12  1  0
 12 13  2  0
 13 14  1  0
 14 15  2  0
 15 16  1  0
  7 17  2  0
 17  2  1  0
 16 12  1  0
  1 18  1  0
  1 19  1  0
  1 20  1  0
  3 21  1  0
  5 22  1  0
  5 23  1  0
  5 24  1  0
  6 25  1  0
  8 26  1  0
 13 27  1  0
 14 28  1  0
 15 29  1  0
 17 30  1  0
M  END
>  <docking_id>  (7) 
PKM2_r07_cid49725559

>  <target>  (7) 
PKM2

>  <compound_id>  (7) 
49725559

>  <admet_priority_rank>  (7) 
7

>  <priority_score>  (7) 
0.582156190110899

>  <ensemble_calibrated_mean>  (7) 
0.370817220211029

>  <admet_support_score>  (7) 
0.7050621909598187

>  <toxicity_burden>  (7) 
0.38506644974

>  <label>  (7) 
0

$$$$
PKM2_r08_cid4258657
     RDKit          3D

 38 39  0  0  0  0  0  0  0  0999 V2000
    5.3300   -0.9336    0.0579 C   0  0  0  0  0  0  0  0  0  0  0  0
    3.8905   -0.4577    0.0172 C   0  0  0  0  0  0  0  0  0  0  0  0
    3.4480    0.1255   -1.6206 S   0  0  0  0  0  0  0  0  0  0  0  0
    4.2206    1.3172   -1.8981 O   0  0  0  0  0  0  0  0  0  0  0  0
    3.4550   -1.0057   -2.5226 O   0  0  0  0  0  0  0  0  0  0  0  0
    1.8446    0.6014   -1.4230 N   0  0  0  0  0  0  0  0  0  0  0  0
    0.8111   -0.4647   -1.3472 C   0  0  0  0  0  0  0  0  0  0  0  0
   -0.5714    0.1336   -1.0577 C   0  0  0  0  0  0  0  0  0  0  0  0
   -0.6042    0.8633    0.2542 N   0  0  0  0  0  0  0  0  0  0  0  0
   -1.2609   -0.0100    1.5658 S   0  0  0  0  0  0  0  0  0  0  0  0
   -1.2159    0.8393    2.7354 O   0  0  0  0  0  0  0  0  0  0  0  0
   -0.6304   -1.3135    1.5529 O   0  0  0  0  0  0  0  0  0  0  0  0
   -2.9654   -0.1916    1.1068 C   0  0  0  0  0  0  0  0  0  0  0  0
   -3.7433    0.9589    0.9262 C   0  0  0  0  0  0  0  0  0  0  0  0
   -5.0836    0.8279    0.5629 C   0  0  0  0  0  0  0  0  0  0  0  0
   -5.6274   -0.4420    0.3897 C   0  0  0  0  0  0  0  0  0  0  0  0
   -6.9142   -0.5641    0.0399 F   0  0  0  0  0  0  0  0  0  0  0  0
   -4.8578   -1.5878    0.5749 C   0  0  0  0  0  0  0  0  0  0  0  0
   -3.5159   -1.4670    0.9384 C   0  0  0  0  0  0  0  0  0  0  0  0
    0.7003    1.5228    0.5983 C   0  0  0  0  0  0  0  0  0  0  0  0
    1.5493    1.8315   -0.6401 C   0  0  0  0  0  0  0  0  0  0  0  0
    5.5859   -1.2856    1.0618 H   0  0  0  0  0  0  0  0  0  0  0  0
    6.0200   -0.1262   -0.2074 H   0  0  0  0  0  0  0  0  0  0  0  0
    5.4929   -1.7568   -0.6451 H   0  0  0  0  0  0  0  0  0  0  0  0
    3.7499    0.3701    0.7172 H   0  0  0  0  0  0  0  0  0  0  0  0
    3.2182   -1.2785    0.2785 H   0  0  0  0  0  0  0  0  0  0  0  0
    1.0753   -1.1864   -0.5685 H   0  0  0  0  0  0  0  0  0  0  0  0
    0.7715   -0.9883   -2.3083 H   0  0  0  0  0  0  0  0  0  0  0  0
   -0.8479    0.8524   -1.8390 H   0  0  0  0  0  0  0  0  0  0  0  0
   -1.3272   -0.6570   -1.0888 H   0  0  0  0  0  0  0  0  0  0  0  0
   -3.3117    1.9471    1.0706 H   0  0  0  0  0  0  0  0  0  0  0  0
   -5.7087    1.7038    0.4177 H   0  0  0  0  0  0  0  0  0  0  0  0
   -5.3110   -2.5653    0.4385 H   0  0  0  0  0  0  0  0  0  0  0  0
   -2.9157   -2.3614    1.0906 H   0  0  0  0  0  0  0  0  0  0  0  0
    1.2776    0.8745    1.2685 H   0  0  0  0  0  0  0  0  0  0  0  0
    0.4816    2.4565    1.1279 H   0  0  0  0  0  0  0  0  0  0  0  0
    1.0197    2.5288   -1.3001 H   0  0  0  0  0  0  0  0  0  0  0  0
    2.4706    2.3315   -0.3250 H   0  0  0  0  0  0  0  0  0  0  0  0
  1  2  1  0
  2  3  1  0
  3  4  2  0
  3  5  2  0
  3  6  1  0
  6  7  1  0
  7  8  1  0
  8  9  1  0
  9 10  1  0
 10 11  2  0
 10 12  2  0
 10 13  1  0
 13 14  2  0
 14 15  1  0
 15 16  2  0
 16 17  1  0
 16 18  1  0
 18 19  2  0
  9 20  1  0
 20 21  1  0
 21  6  1  0
 19 13  1  0
  1 22  1  0
  1 23  1  0
  1 24  1  0
  2 25  1  0
  2 26  1  0
  7 27  1  0
  7 28  1  0
  8 29  1  0
  8 30  1  0
 14 31  1  0
 15 32  1  0
 18 33  1  0
 19 34  1  0
 20 35  1  0
 20 36  1  0
 21 37  1  0
 21 38  1  0
M  END
>  <docking_id>  (8) 
PKM2_r08_cid4258657

>  <target>  (8) 
PKM2

>  <compound_id>  (8) 
4258657

>  <admet_priority_rank>  (8) 
8

>  <priority_score>  (8) 
0.6324042896383102

>  <ensemble_calibrated_mean>  (8) 
0.2063829809427261

>  <admet_support_score>  (8) 
0.8009687639871224

>  <toxicity_burden>  (8) 
0.4643092601999999

>  <label>  (8) 
0

$$$$
PKM2_r09_cid47201626
     RDKit          3D

 32 33  0  0  0  0  0  0  0  0999 V2000
   -3.1251    2.1989    0.3805 C   0  0  0  0  0  0  0  0  0  0  0  0
   -2.1794    1.1559   -0.1522 C   0  0  0  0  0  0  0  0  0  0  0  0
   -1.1349    1.5518   -1.0048 C   0  0  0  0  0  0  0  0  0  0  0  0
   -0.2424    0.6154   -1.5248 C   0  0  0  0  0  0  0  0  0  0  0  0
   -0.3843   -0.7281   -1.1811 C   0  0  0  0  0  0  0  0  0  0  0  0
    0.7436   -1.9350   -1.8390 S   0  0  0  0  0  0  0  0  0  0  0  0
    1.3984   -1.3651   -2.9960 O   0  0  0  0  0  0  0  0  0  0  0  0
    0.0370   -3.1961   -1.9204 O   0  0  0  0  0  0  0  0  0  0  0  0
    1.8704   -2.1136   -0.5942 N   0  0  0  0  0  0  0  0  0  0  0  0
    2.5569   -0.9662   -0.1037 C   0  0  0  0  0  0  0  0  0  0  0  0
    2.4339   -0.6249    1.2407 C   0  0  0  0  0  0  0  0  0  0  0  0
    3.0829    0.5109    1.7209 C   0  0  0  0  0  0  0  0  0  0  0  0
    3.8372    1.2643    0.8352 C   0  0  0  0  0  0  0  0  0  0  0  0
    3.9843    0.9583   -0.4714 N   0  0  0  0  0  0  0  0  0  0  0  0
    3.3457   -0.1531   -0.9124 C   0  0  0  0  0  0  0  0  0  0  0  0
   -1.4285   -1.1461   -0.3501 C   0  0  0  0  0  0  0  0  0  0  0  0
   -2.3321   -0.2086    0.1742 C   0  0  0  0  0  0  0  0  0  0  0  0
   -3.4490   -0.6806    1.0653 C   0  0  0  0  0  0  0  0  0  0  0  0
   -3.1184    2.1958    1.4750 H   0  0  0  0  0  0  0  0  0  0  0  0
   -4.1409    2.0093    0.0197 H   0  0  0  0  0  0  0  0  0  0  0  0
   -2.8398    3.2047    0.0542 H   0  0  0  0  0  0  0  0  0  0  0  0
   -1.0120    2.5994   -1.2746 H   0  0  0  0  0  0  0  0  0  0  0  0
    0.5552    0.9439   -2.1877 H   0  0  0  0  0  0  0  0  0  0  0  0
    1.5991   -2.8367    0.0693 H   0  0  0  0  0  0  0  0  0  0  0  0
    1.8309   -1.2213    1.9182 H   0  0  0  0  0  0  0  0  0  0  0  0
    2.9999    0.8044    2.7616 H   0  0  0  0  0  0  0  0  0  0  0  0
    4.3596    2.1590    1.1630 H   0  0  0  0  0  0  0  0  0  0  0  0
    3.5027   -0.3768   -1.9639 H   0  0  0  0  0  0  0  0  0  0  0  0
   -1.5447   -2.2028   -0.1162 H   0  0  0  0  0  0  0  0  0  0  0  0
   -3.3675   -0.2184    2.0541 H   0  0  0  0  0  0  0  0  0  0  0  0
   -4.4190   -0.4320    0.6234 H   0  0  0  0  0  0  0  0  0  0  0  0
   -3.4196   -1.7664    1.2060 H   0  0  0  0  0  0  0  0  0  0  0  0
  1  2  1  0
  2  3  2  0
  3  4  1  0
  4  5  2  0
  5  6  1  0
  6  7  2  0
  6  8  2  0
  6  9  1  0
  9 10  1  0
 10 11  2  0
 11 12  1  0
 12 13  2  0
 13 14  1  0
 14 15  2  0
  5 16  1  0
 16 17  2  0
 17 18  1  0
 17  2  1  0
 15 10  1  0
  1 19  1  0
  1 20  1  0
  1 21  1  0
  3 22  1  0
  4 23  1  0
  9 24  1  0
 11 25  1  0
 12 26  1  0
 13 27  1  0
 15 28  1  0
 16 29  1  0
 18 30  1  0
 18 31  1  0
 18 32  1  0
M  END
>  <docking_id>  (9) 
PKM2_r09_cid47201626

>  <target>  (9) 
PKM2

>  <compound_id>  (9) 
47201626

>  <admet_priority_rank>  (9) 
9

>  <priority_score>  (9) 
0.6350559605330995

>  <ensemble_calibrated_mean>  (9) 
0.2111111119389534

>  <admet_support_score>  (9) 
0.7299398094999139

>  <toxicity_burden>  (9) 
0.312794459232

>  <label>  (9) 
0

$$$$
PKM2_r10_cid14734616
     RDKit          3D

 34 35  0  0  0  0  0  0  0  0999 V2000
    1.2186   -1.6944   -2.6322 C   0  0  0  0  0  0  0  0  0  0  0  0
    0.7546   -0.9962   -1.4840 O   0  0  0  0  0  0  0  0  0  0  0  0
    1.6885   -0.4131   -0.6752 C   0  0  0  0  0  0  0  0  0  0  0  0
    3.0162   -0.1877   -1.0548 C   0  0  0  0  0  0  0  0  0  0  0  0
    3.9175    0.4309   -0.1798 C   0  0  0  0  0  0  0  0  0  0  0  0
    3.5136    0.8306    1.0967 C   0  0  0  0  0  0  0  0  0  0  0  0
    4.4746    1.5166    2.0221 C   0  0  0  0  0  0  0  0  0  0  0  0
    2.1832    0.6297    1.4762 C   0  0  0  0  0  0  0  0  0  0  0  0
    1.2798    0.0132    0.5949 C   0  0  0  0  0  0  0  0  0  0  0  0
   -0.3951   -0.2355    1.1390 S   0  0  0  0  0  0  0  0  0  0  0  0
   -0.5510    0.4555    2.4059 O   0  0  0  0  0  0  0  0  0  0  0  0
   -0.7031   -1.6431    1.0128 O   0  0  0  0  0  0  0  0  0  0  0  0
   -1.2768    0.7022    0.0148 N   0  0  0  0  0  0  0  0  0  0  0  0
   -2.6567    0.3330   -0.0935 C   0  0  0  0  0  0  0  0  0  0  0  0
   -3.6147    0.9441    0.7165 C   0  0  0  0  0  0  0  0  0  0  0  0
   -4.9499    0.5465    0.6292 C   0  0  0  0  0  0  0  0  0  0  0  0
   -5.3206   -0.4676   -0.2547 C   0  0  0  0  0  0  0  0  0  0  0  0
   -4.3564   -1.0915   -1.0468 C   0  0  0  0  0  0  0  0  0  0  0  0
   -3.0215   -0.6953   -0.9613 C   0  0  0  0  0  0  0  0  0  0  0  0
    1.5993   -0.9966   -3.3848 H   0  0  0  0  0  0  0  0  0  0  0  0
    1.9731   -2.4430   -2.3681 H   0  0  0  0  0  0  0  0  0  0  0  0
    0.3651   -2.2213   -3.0695 H   0  0  0  0  0  0  0  0  0  0  0  0
    3.3844   -0.4727   -2.0355 H   0  0  0  0  0  0  0  0  0  0  0  0
    4.9425    0.5966   -0.5065 H   0  0  0  0  0  0  0  0  0  0  0  0
    5.4998    1.1749    1.8445 H   0  0  0  0  0  0  0  0  0  0  0  0
    4.4314    2.5995    1.8704 H   0  0  0  0  0  0  0  0  0  0  0  0
    4.2353    1.2949    3.0674 H   0  0  0  0  0  0  0  0  0  0  0  0
    1.8541    0.9478    2.4642 H   0  0  0  0  0  0  0  0  0  0  0  0
   -1.1843    1.6740    0.3115 H   0  0  0  0  0  0  0  0  0  0  0  0
   -3.3345    1.7182    1.4249 H   0  0  0  0  0  0  0  0  0  0  0  0
   -5.6997    1.0190    1.2585 H   0  0  0  0  0  0  0  0  0  0  0  0
   -6.3596   -0.7817   -0.3167 H   0  0  0  0  0  0  0  0  0  0  0  0
   -4.6408   -1.8937   -1.7224 H   0  0  0  0  0  0  0  0  0  0  0  0
   -2.2668   -1.1937   -1.5639 H   0  0  0  0  0  0  0  0  0  0  0  0
  1  2  1  0
  2  3  1  0
  3  4  2  0
  4  5  1  0
  5  6  2  0
  6  7  1  0
  6  8  1  0
  8  9  2  0
  9 10  1  0
 10 11  2  0
 10 12  2  0
 10 13  1  0
 13 14  1  0
 14 15  2  0
 15 16  1  0
 16 17  2  0
 17 18  1  0
 18 19  2  0
  9  3  1  0
 19 14  1  0
  1 20  1  0
  1 21  1  0
  1 22  1  0
  4 23  1  0
  5 24  1  0
  7 25  1  0
  7 26  1  0
  7 27  1  0
  8 28  1  0
 13 29  1  0
 15 30  1  0
 16 31  1  0
 17 32  1  0
 18 33  1  0
 19 34  1  0
M  END
>  <docking_id>  (10) 
PKM2_r10_cid14734616

>  <target>  (10) 
PKM2

>  <compound_id>  (10) 
14734616

>  <admet_priority_rank>  (10) 
10

>  <priority_score>  (10) 
0.6332809002349961

>  <ensemble_calibrated_mean>  (10) 
0.2111111119389534

>  <admet_support_score>  (10) 
0.7453668517040439

>  <toxicity_burden>  (10) 
0.34597106542

>  <label>  (10) 
0

$$$$
PKM2_r11_cid14720761
     RDKit          3D

 30 32  0  0  0  0  0  0  0  0999 V2000
    1.8964   -3.1499    1.5883 O   0  0  0  0  0  0  0  0  0  0  0  0
    1.0630   -1.9661    1.5469 S   0  0  0  0  0  0  0  0  0  0  0  0
    0.5184   -1.3914    2.7579 O   0  0  0  0  0  0  0  0  0  0  0  0
   -0.1933   -2.3199    0.4738 N   0  0  0  0  0  0  0  0  0  0  0  0
   -1.0298   -1.2711   -0.0002 C   0  0  0  0  0  0  0  0  0  0  0  0
   -1.0112   -0.9660   -1.3748 C   0  0  0  0  0  0  0  0  0  0  0  0
   -1.7956    0.0747   -1.8818 C   0  0  0  0  0  0  0  0  0  0  0  0
   -2.5784    0.7772   -0.9918 C   0  0  0  0  0  0  0  0  0  0  0  0
   -2.5986    0.4753    0.3498 C   0  0  0  0  0  0  0  0  0  0  0  0
   -1.8360   -0.5444    0.8787 C   0  0  0  0  0  0  0  0  0  0  0  0
   -3.4366    1.2865    1.0495 O   0  0  0  0  0  0  0  0  0  0  0  0
   -3.9445    2.1302   -0.0046 C   0  0  0  0  0  0  0  0  0  0  0  0
   -3.3991    1.8150   -1.3032 O   0  0  0  0  0  0  0  0  0  0  0  0
    1.9746   -0.7008    0.6910 C   0  0  0  0  0  0  0  0  0  0  0  0
    2.9489   -1.0684   -0.2427 C   0  0  0  0  0  0  0  0  0  0  0  0
    3.6695   -0.0763   -0.9075 C   0  0  0  0  0  0  0  0  0  0  0  0
    3.4227    1.2700   -0.6321 C   0  0  0  0  0  0  0  0  0  0  0  0
    2.4613    1.6308    0.3138 C   0  0  0  0  0  0  0  0  0  0  0  0
    1.7378    0.6455    0.9848 C   0  0  0  0  0  0  0  0  0  0  0  0
    0.0608   -3.0626   -0.1750 H   0  0  0  0  0  0  0  0  0  0  0  0
   -0.3784   -1.5280   -2.0567 H   0  0  0  0  0  0  0  0  0  0  0  0
   -1.7881    0.3245   -2.9368 H   0  0  0  0  0  0  0  0  0  0  0  0
   -1.8760   -0.7684    1.9390 H   0  0  0  0  0  0  0  0  0  0  0  0
   -5.0345    2.0222   -0.0463 H   0  0  0  0  0  0  0  0  0  0  0  0
   -3.7028    3.1725    0.2332 H   0  0  0  0  0  0  0  0  0  0  0  0
    3.1557   -2.1155   -0.4506 H   0  0  0  0  0  0  0  0  0  0  0  0
    4.4299   -0.3503   -1.6350 H   0  0  0  0  0  0  0  0  0  0  0  0
    3.9885    2.0415   -1.1495 H   0  0  0  0  0  0  0  0  0  0  0  0
    2.2802    2.6808    0.5317 H   0  0  0  0  0  0  0  0  0  0  0  0
    0.9952    0.9324    1.7263 H   0  0  0  0  0  0  0  0  0  0  0  0
  1  2  2  0
  2  3  2  0
  2  4  1  0
  4  5  1  0
  5  6  2  0
  6  7  1  0
  7  8  2  0
  8  9  1  0
  9 10  2  0
  9 11  1  0
 11 12  1  0
 12 13  1  0
  2 14  1  0
 14 15  2  0
 15 16  1  0
 16 17  2  0
 17 18  1  0
 18 19  2  0
 10  5  1  0
 19 14  1  0
 13  8  1  0
  4 20  1  0
  6 21  1  0
  7 22  1  0
 10 23  1  0
 12 24  1  0
 12 25  1  0
 15 26  1  0
 16 27  1  0
 17 28  1  0
 18 29  1  0
 19 30  1  0
M  END
>  <docking_id>  (11) 
PKM2_r11_cid14720761

>  <target>  (11) 
PKM2

>  <compound_id>  (11) 
14720761

>  <admet_priority_rank>  (11) 
11

>  <priority_score>  (11) 
0.6328921363103924

>  <ensemble_calibrated_mean>  (11) 
0.2111111119389534

>  <admet_support_score>  (11) 
0.7228948497309995

>  <toxicity_burden>  (11) 
0.40026568574

>  <label>  (11) 
0

$$$$
PKM2_r12_cid7972968
     RDKit          3D

 28 29  0  0  0  0  0  0  0  0999 V2000
    5.2142   -1.4793    2.4192 N   0  0  0  0  0  0  0  0  0  0  0  0
    4.4733   -1.5515    1.5281 C   0  0  0  0  0  0  0  0  0  0  0  0
    3.5489   -1.6630    0.3905 C   0  0  0  0  0  0  0  0  0  0  0  0
    2.4270   -0.6522    0.4516 C   0  0  0  0  0  0  0  0  0  0  0  0
    1.2321   -0.9535    1.1224 C   0  0  0  0  0  0  0  0  0  0  0  0
    0.2017   -0.0131    1.1899 C   0  0  0  0  0  0  0  0  0  0  0  0
    0.3624    1.2395    0.6023 C   0  0  0  0  0  0  0  0  0  0  0  0
   -0.7178    2.1732    0.6357 N   0  0  0  0  0  0  0  0  0  0  0  0
   -1.7701    2.1373   -0.7013 S   0  0  0  0  0  0  0  0  0  0  0  0
   -2.7422    3.1897   -0.4973 O   0  0  0  0  0  0  0  0  0  0  0  0
   -0.9768    2.0889   -1.9122 O   0  0  0  0  0  0  0  0  0  0  0  0
   -2.6787    0.6106   -0.6779 C   0  0  0  0  0  0  0  0  0  0  0  0
   -2.7058   -0.4638   -1.5473 C   0  0  0  0  0  0  0  0  0  0  0  0
   -3.5912   -1.4918   -1.1128 C   0  0  0  0  0  0  0  0  0  0  0  0
   -4.2105   -1.1678    0.0740 C   0  0  0  0  0  0  0  0  0  0  0  0
   -3.7226    0.3657    0.6563 S   0  0  0  0  0  0  0  0  0  0  0  0
    1.5439    1.5520   -0.0681 C   0  0  0  0  0  0  0  0  0  0  0  0
    2.5751    0.6123   -0.1380 C   0  0  0  0  0  0  0  0  0  0  0  0
    4.0991   -1.5382   -0.5503 H   0  0  0  0  0  0  0  0  0  0  0  0
    3.1242   -2.6738    0.3531 H   0  0  0  0  0  0  0  0  0  0  0  0
    1.0933   -1.9212    1.6013 H   0  0  0  0  0  0  0  0  0  0  0  0
   -0.7142   -0.2609    1.7194 H   0  0  0  0  0  0  0  0  0  0  0  0
   -0.4166    3.1402    0.7624 H   0  0  0  0  0  0  0  0  0  0  0  0
   -2.1122   -0.4981   -2.4538 H   0  0  0  0  0  0  0  0  0  0  0  0
   -3.7681   -2.4190   -1.6448 H   0  0  0  0  0  0  0  0  0  0  0  0
   -4.9301   -1.7553    0.6285 H   0  0  0  0  0  0  0  0  0  0  0  0
    1.6694    2.5170   -0.5525 H   0  0  0  0  0  0  0  0  0  0  0  0
    3.4923    0.8762   -0.6620 H   0  0  0  0  0  0  0  0  0  0  0  0
  1  2  3  0
  2  3  1  0
  3  4  1  0
  4  5  2  0
  5  6  1  0
  6  7  2  0
  7  8  1  0
  8  9  1  0
  9 10  2  0
  9 11  2  0
  9 12  1  0
 12 13  2  0
 13 14  1  0
 14 15  2  0
 15 16  1  0
  7 17  1  0
 17 18  2  0
 18  4  1  0
 16 12  1  0
  3 19  1  0
  3 20  1  0
  5 21  1  0
  6 22  1  0
  8 23  1  0
 13 24  1  0
 14 25  1  0
 15 26  1  0
 17 27  1  0
 18 28  1  0
M  END
>  <docking_id>  (12) 
PKM2_r12_cid7972968

>  <target>  (12) 
PKM2

>  <compound_id>  (12) 
7972968

>  <admet_priority_rank>  (12) 
12

>  <priority_score>  (12) 
0.6320357253637418

>  <ensemble_calibrated_mean>  (12) 
0.2111111119389534

>  <admet_support_score>  (12) 
0.7311983564929108

>  <toxicity_burden>  (12) 
0.4148520756

>  <label>  (12) 
1

$$$$
PKM2_r13_cid24782107
     RDKit          3D

 56 58  0  0  0  0  0  0  0  0999 V2000
   -4.5023   -1.9329    1.2539 C   0  0  0  0  0  0  0  0  0  0  0  0
   -3.6492   -2.1690    0.0132 C   0  0  0  0  0  0  0  0  0  0  0  0
   -3.4604   -0.8985   -0.8409 C   0  0  0  0  0  0  0  0  0  0  0  0
   -4.4374   -0.8324   -2.0353 C   0  0  0  0  0  0  0  0  0  0  0  0
   -5.8981   -0.6889   -1.6390 C   0  0  0  0  0  0  0  0  0  0  0  0
   -2.0160   -0.8536   -1.3690 C   0  0  0  0  0  0  0  0  0  0  0  0
   -1.7592   -1.2447   -2.5117 O   0  0  0  0  0  0  0  0  0  0  0  0
   -1.0345   -0.4190   -0.4858 N   0  0  0  0  0  0  0  0  0  0  0  0
    0.2849   -0.4449   -0.8878 N   0  0  0  0  0  0  0  0  0  0  0  0
    1.0085   -0.0947    0.1309 C   0  0  0  0  0  0  0  0  0  0  0  0
    2.4840    0.0225    0.0695 C   0  0  0  0  0  0  0  0  0  0  0  0
    3.2497    0.2580    1.2149 C   0  0  0  0  0  0  0  0  0  0  0  0
    4.6423    0.3636    1.1165 C   0  0  0  0  0  0  0  0  0  0  0  0
    5.2799    0.2218   -0.1191 C   0  0  0  0  0  0  0  0  0  0  0  0
    6.6958    0.3601   -0.1608 N   0  0  0  0  0  0  0  0  0  0  0  0
    7.6664   -0.7488   -0.9683 S   0  0  0  0  0  0  0  0  0  0  0  0
    7.2571   -2.2828   -0.1577 C   0  0  0  0  0  0  0  0  0  0  0  0
    7.2728   -0.8367   -2.3559 O   0  0  0  0  0  0  0  0  0  0  0  0
    9.0244   -0.4116   -0.5952 O   0  0  0  0  0  0  0  0  0  0  0  0
    4.5145    0.0103   -1.2640 C   0  0  0  0  0  0  0  0  0  0  0  0
    3.1230   -0.0996   -1.1696 C   0  0  0  0  0  0  0  0  0  0  0  0
    0.2421    0.1457    1.4029 C   0  0  0  0  0  0  0  0  0  0  0  0
   -1.1831    0.1508    0.8587 C   0  0  0  0  0  0  0  0  0  0  0  0
   -1.7647    1.5555    0.8727 C   0  0  0  0  0  0  0  0  0  0  0  0
   -1.4949    2.4840   -0.1457 C   0  0  0  0  0  0  0  0  0  0  0  0
   -2.0316    3.7714   -0.0954 C   0  0  0  0  0  0  0  0  0  0  0  0
   -2.8377    4.1511    0.9750 C   0  0  0  0  0  0  0  0  0  0  0  0
   -3.1070    3.2452    1.9981 C   0  0  0  0  0  0  0  0  0  0  0  0
   -2.5720    1.9566    1.9503 C   0  0  0  0  0  0  0  0  0  0  0  0
   -5.5095   -1.5950    0.9994 H   0  0  0  0  0  0  0  0  0  0  0  0
   -4.5964   -2.8620    1.8253 H   0  0  0  0  0  0  0  0  0  0  0  0
   -4.0493   -1.1825    1.9084 H   0  0  0  0  0  0  0  0  0  0  0  0
   -4.1027   -2.9677   -0.5863 H   0  0  0  0  0  0  0  0  0  0  0  0
   -2.6805   -2.5608    0.3469 H   0  0  0  0  0  0  0  0  0  0  0  0
   -3.6331   -0.0045   -0.2355 H   0  0  0  0  0  0  0  0  0  0  0  0
   -4.1697    0.0276   -2.6632 H   0  0  0  0  0  0  0  0  0  0  0  0
   -4.3269   -1.7208   -2.6698 H   0  0  0  0  0  0  0  0  0  0  0  0
   -6.5106   -0.5054   -2.5279 H   0  0  0  0  0  0  0  0  0  0  0  0
   -6.2740   -1.6009   -1.1671 H   0  0  0  0  0  0  0  0  0  0  0  0
   -6.0413    0.1500   -0.9511 H   0  0  0  0  0  0  0  0  0  0  0  0
    2.7908    0.3630    2.1935 H   0  0  0  0  0  0  0  0  0  0  0  0
    5.2189    0.5535    2.0183 H   0  0  0  0  0  0  0  0  0  0  0  0
    7.1625    0.7577    0.6536 H   0  0  0  0  0  0  0  0  0  0  0  0
    6.2207   -2.5446   -0.3760 H   0  0  0  0  0  0  0  0  0  0  0  0
    7.9209   -3.0553   -0.5526 H   0  0  0  0  0  0  0  0  0  0  0  0
    7.4198   -2.1711    0.9159 H   0  0  0  0  0  0  0  0  0  0  0  0
    4.9732   -0.0530   -2.2476 H   0  0  0  0  0  0  0  0  0  0  0  0
    2.5431   -0.2700   -2.0764 H   0  0  0  0  0  0  0  0  0  0  0  0
    0.4040   -0.7077    2.0702 H   0  0  0  0  0  0  0  0  0  0  0  0
    0.5389    1.0722    1.9014 H   0  0  0  0  0  0  0  0  0  0  0  0
   -1.8200   -0.5145    1.4491 H   0  0  0  0  0  0  0  0  0  0  0  0
   -0.8680    2.2119   -0.9945 H   0  0  0  0  0  0  0  0  0  0  0  0
   -1.8206    4.4772   -0.8952 H   0  0  0  0  0  0  0  0  0  0  0  0
   -3.2560    5.1538    1.0107 H   0  0  0  0  0  0  0  0  0  0  0  0
   -3.7357    3.5434    2.8335 H   0  0  0  0  0  0  0  0  0  0  0  0
   -2.7960    1.2668    2.7615 H   0  0  0  0  0  0  0  0  0  0  0  0
  1  2  1  0
  2  3  1  0
  3  4  1  0
  4  5  1  0
  3  6  1  0
  6  7  2  0
  6  8  1  0
  8  9  1  0
  9 10  2  0
 10 11  1  0
 11 12  2  0
 12 13  1  0
 13 14  2  0
 14 15  1  0
 15 16  1  0
 16 17  1  0
 16 18  2  0
 16 19  2  0
 14 20  1  0
 20 21  2  0
 10 22  1  0
 22 23  1  0
 23 24  1  0
 24 25  2  0
 25 26  1  0
 26 27  2  0
 27 28  1  0
 28 29  2  0
 23  8  1  0
 29 24  1  0
 21 11  1  0
  1 30  1  0
  1 31  1  0
  1 32  1  0
  2 33  1  0
  2 34  1  0
  3 35  1  0
  4 36  1  0
  4 37  1  0
  5 38  1  0
  5 39  1  0
  5 40  1  0
 12 41  1  0
 13 42  1  0
 15 43  1  0
 17 44  1  0
 17 45  1  0
 17 46  1  0
 20 47  1  0
 21 48  1  0
 22 49  1  0
 22 50  1  0
 23 51  1  0
 25 52  1  0
 26 53  1  0
 27 54  1  0
 28 55  1  0
 29 56  1  0
M  END
>  <docking_id>  (13) 
PKM2_r13_cid24782107

>  <target>  (13) 
PKM2

>  <compound_id>  (13) 
24782107

>  <admet_priority_rank>  (13) 
13

>  <priority_score>  (13) 
0.6321130352350172

>  <ensemble_calibrated_mean>  (13) 
0.2063829809427261

>  <admet_support_score>  (13) 
0.7254579989319387

>  <toxicity_burden>  (13) 
0.4411350907999999

>  <label>  (13) 
0

$$$$
PKM2_r14_cid14723251
     RDKit          3D

 37 39  0  0  0  0  0  0  0  0999 V2000
   -3.4463    1.9978    2.0151 C   0  0  0  0  0  0  0  0  0  0  0  0
   -3.5640    1.3395    0.7604 O   0  0  0  0  0  0  0  0  0  0  0  0
   -2.6460    0.3638    0.4709 C   0  0  0  0  0  0  0  0  0  0  0  0
   -1.5864   -0.0083    1.3064 C   0  0  0  0  0  0  0  0  0  0  0  0
   -0.6986   -1.0152    0.9193 C   0  0  0  0  0  0  0  0  0  0  0  0
   -0.8642   -1.6433   -0.3153 C   0  0  0  0  0  0  0  0  0  0  0  0
    0.2646   -2.9237   -0.8167 S   0  0  0  0  0  0  0  0  0  0  0  0
   -0.4605   -3.8277   -1.6850 O   0  0  0  0  0  0  0  0  0  0  0  0
    0.9522   -3.4060    0.3614 O   0  0  0  0  0  0  0  0  0  0  0  0
    1.3553   -2.0973   -1.8086 N   0  0  0  0  0  0  0  0  0  0  0  0
    2.0148   -0.9390   -1.3105 C   0  0  0  0  0  0  0  0  0  0  0  0
    1.7324    0.3049   -1.9070 C   0  0  0  0  0  0  0  0  0  0  0  0
    2.3319    1.4740   -1.4283 C   0  0  0  0  0  0  0  0  0  0  0  0
    3.2002    1.3580   -0.3648 C   0  0  0  0  0  0  0  0  0  0  0  0
    3.4773    0.1419    0.2147 C   0  0  0  0  0  0  0  0  0  0  0  0
    2.9008   -1.0273   -0.2345 C   0  0  0  0  0  0  0  0  0  0  0  0
    4.3569    0.2493    1.2464 O   0  0  0  0  0  0  0  0  0  0  0  0
    4.6088    1.6697    1.2447 C   0  0  0  0  0  0  0  0  0  0  0  0
    3.8695    2.3809    0.2295 O   0  0  0  0  0  0  0  0  0  0  0  0
   -1.9275   -1.2974   -1.1527 C   0  0  0  0  0  0  0  0  0  0  0  0
   -2.8212   -0.2866   -0.7670 C   0  0  0  0  0  0  0  0  0  0  0  0
   -3.9630    0.0845   -1.6739 C   0  0  0  0  0  0  0  0  0  0  0  0
   -2.5005    2.5450    2.0860 H   0  0  0  0  0  0  0  0  0  0  0  0
   -4.2584    2.7277    2.0866 H   0  0  0  0  0  0  0  0  0  0  0  0
   -3.5600    1.2917    2.8442 H   0  0  0  0  0  0  0  0  0  0  0  0
   -1.4231    0.4651    2.2692 H   0  0  0  0  0  0  0  0  0  0  0  0
    0.1178   -1.2958    1.5817 H   0  0  0  0  0  0  0  0  0  0  0  0
    1.0561   -2.0976   -2.7821 H   0  0  0  0  0  0  0  0  0  0  0  0
    1.0360    0.3736   -2.7386 H   0  0  0  0  0  0  0  0  0  0  0  0
    2.1205    2.4395   -1.8740 H   0  0  0  0  0  0  0  0  0  0  0  0
    3.1406   -1.9753    0.2345 H   0  0  0  0  0  0  0  0  0  0  0  0
    4.3358    2.0754    2.2256 H   0  0  0  0  0  0  0  0  0  0  0  0
    5.6797    1.8364    1.0803 H   0  0  0  0  0  0  0  0  0  0  0  0
   -2.0652   -1.8137   -2.1006 H   0  0  0  0  0  0  0  0  0  0  0  0
   -3.9488   -0.5022   -2.5985 H   0  0  0  0  0  0  0  0  0  0  0  0
   -3.8983    1.1414   -1.9523 H   0  0  0  0  0  0  0  0  0  0  0  0
   -4.9193   -0.1038   -1.1753 H   0  0  0  0  0  0  0  0  0  0  0  0
  1  2  1  0
  2  3  1  0
  3  4  2  0
  4  5  1  0
  5  6  2  0
  6  7  1  0
  7  8  2  0
  7  9  2  0
  7 10  1  0
 10 11  1  0
 11 12  2  0
 12 13  1  0
 13 14  2  0
 14 15  1  0
 15 16  2  0
 15 17  1  0
 17 18  1  0
 18 19  1  0
  6 20  1  0
 20 21  2  0
 21 22  1  0
 21  3  1  0
 16 11  1  0
 19 14  1  0
  1 23  1  0
  1 24  1  0
  1 25  1  0
  4 26  1  0
  5 27  1  0
 10 28  1  0
 12 29  1  0
 13 30  1  0
 16 31  1  0
 18 32  1  0
 18 33  1  0
 20 34  1  0
 22 35  1  0
 22 36  1  0
 22 37  1  0
M  END
>  <docking_id>  (14) 
PKM2_r14_cid14723251

>  <target>  (14) 
PKM2

>  <compound_id>  (14) 
14723251

>  <admet_priority_rank>  (14) 
14

>  <priority_score>  (14) 
0.6324706939202026

>  <ensemble_calibrated_mean>  (14) 
0.2111111119389534

>  <admet_support_score>  (14) 
0.6812339916127927

>  <toxicity_burden>  (14) 
0.4391745755

>  <label>  (14) 
0

$$$$
PKM2_r15_cid24813314
     RDKit          3D

 35 36  0  0  0  0  0  0  0  0999 V2000
    4.7372   -1.0229   -0.5478 C   0  0  0  0  0  0  0  0  0  0  0  0
    3.4141   -0.4757   -0.0867 C   0  0  0  0  0  0  0  0  0  0  0  0
    2.3749   -0.3173   -1.0132 C   0  0  0  0  0  0  0  0  0  0  0  0
    1.1318    0.1905   -0.6227 C   0  0  0  0  0  0  0  0  0  0  0  0
    0.9102    0.5772    0.6965 C   0  0  0  0  0  0  0  0  0  0  0  0
   -0.3520    1.0162    1.2078 N   0  0  0  0  0  0  0  0  0  0  0  0
   -1.5570    1.7235    0.2732 S   0  0  0  0  0  0  0  0  0  0  0  0
   -0.9899    2.2824   -0.9299 O   0  0  0  0  0  0  0  0  0  0  0  0
   -2.3100    2.5206    1.2182 O   0  0  0  0  0  0  0  0  0  0  0  0
   -2.6307    0.3926   -0.1910 C   0  0  0  0  0  0  0  0  0  0  0  0
   -2.2229   -0.9428   -0.0789 C   0  0  0  0  0  0  0  0  0  0  0  0
   -3.1109   -1.9790   -0.3895 C   0  0  0  0  0  0  0  0  0  0  0  0
   -4.4147   -1.6959   -0.7970 C   0  0  0  0  0  0  0  0  0  0  0  0
   -4.8392   -0.3725   -0.8960 C   0  0  0  0  0  0  0  0  0  0  0  0
   -3.9427    0.6631   -0.5911 C   0  0  0  0  0  0  0  0  0  0  0  0
   -4.4389    2.0203   -0.7214 N   0  0  0  0  0  0  0  0  0  0  0  0
   -5.4189    2.3249   -0.0296 O   0  0  0  0  0  0  0  0  0  0  0  0
   -3.8912    2.7410   -1.5618 O   0  0  0  0  0  0  0  0  0  0  0  0
    1.9339    0.3857    1.6321 C   0  0  0  0  0  0  0  0  0  0  0  0
    3.1889   -0.1271    1.2570 C   0  0  0  0  0  0  0  0  0  0  0  0
    4.2613   -0.2894    2.2996 C   0  0  0  0  0  0  0  0  0  0  0  0
    5.5400   -0.3104   -0.3333 H   0  0  0  0  0  0  0  0  0  0  0  0
    4.7421   -1.2066   -1.6276 H   0  0  0  0  0  0  0  0  0  0  0  0
    4.9490   -1.9740   -0.0494 H   0  0  0  0  0  0  0  0  0  0  0  0
    2.5235   -0.5885   -2.0569 H   0  0  0  0  0  0  0  0  0  0  0  0
    0.3651    0.2802   -1.3855 H   0  0  0  0  0  0  0  0  0  0  0  0
   -0.3518    1.4186    2.1456 H   0  0  0  0  0  0  0  0  0  0  0  0
   -1.2256   -1.2095    0.2584 H   0  0  0  0  0  0  0  0  0  0  0  0
   -2.7847   -3.0143   -0.3033 H   0  0  0  0  0  0  0  0  0  0  0  0
   -5.1002   -2.5079   -1.0312 H   0  0  0  0  0  0  0  0  0  0  0  0
   -5.8596   -0.1546   -1.2072 H   0  0  0  0  0  0  0  0  0  0  0  0
    1.7622    0.6423    2.6753 H   0  0  0  0  0  0  0  0  0  0  0  0
    3.9065    0.0079    3.2921 H   0  0  0  0  0  0  0  0  0  0  0  0
    4.5750   -1.3361    2.3634 H   0  0  0  0  0  0  0  0  0  0  0  0
    5.1250    0.3375    2.0565 H   0  0  0  0  0  0  0  0  0  0  0  0
  1  2  1  0
  2  3  2  0
  3  4  1  0
  4  5  2  0
  5  6  1  0
  6  7  1  0
  7  8  2  0
  7  9  2  0
  7 10  1  0
 10 11  2  0
 11 12  1  0
 12 13  2  0
 13 14  1  0
 14 15  2  0
 15 16  1  0
 16 17  2  0
 16 18  1  0
  5 19  1  0
 19 20  2  0
 20 21  1  0
 20  2  1  0
 15 10  1  0
  1 22  1  0
  1 23  1  0
  1 24  1  0
  3 25  1  0
  4 26  1  0
  6 27  1  0
 11 28  1  0
 12 29  1  0
 13 30  1  0
 14 31  1  0
 19 32  1  0
 21 33  1  0
 21 34  1  0
 21 35  1  0
M  CHG  2  16   1  18  -1
M  END
>  <docking_id>  (15) 
PKM2_r15_cid24813314

>  <target>  (15) 
PKM2

>  <compound_id>  (15) 
24813314

>  <admet_priority_rank>  (15) 
15

>  <priority_score>  (15) 
0.6347085908426213

>  <ensemble_calibrated_mean>  (15) 
0.2111111119389534

>  <admet_support_score>  (15) 
0.6551600923209643

>  <toxicity_burden>  (15) 
0.45982451116

>  <label>  (15) 
0

$$$$
PKM2_r16_cid24815762
     RDKit          3D

 35 37  0  0  0  0  0  0  0  0999 V2000
    0.3349    1.9096    2.8523 O   0  0  0  0  0  0  0  0  0  0  0  0
    0.9313    0.8677    2.5871 C   0  0  0  0  0  0  0  0  0  0  0  0
    0.5940   -0.4124    3.3471 C   0  0  0  0  0  0  0  0  0  0  0  0
    0.9784   -1.9487    2.4329 S   0  0  0  0  0  0  0  0  0  0  0  0
   -0.2861   -1.9228    1.1785 C   0  0  0  0  0  0  0  0  0  0  0  0
   -0.2829   -2.8882    0.1845 C   0  0  0  0  0  0  0  0  0  0  0  0
   -1.2766   -2.8550   -0.7930 C   0  0  0  0  0  0  0  0  0  0  0  0
   -2.2363   -1.8574   -0.7362 C   0  0  0  0  0  0  0  0  0  0  0  0
   -3.3160   -1.7214   -1.6987 C   0  0  0  0  0  0  0  0  0  0  0  0
   -4.3555   -0.8229   -1.8484 C   0  0  0  0  0  0  0  0  0  0  0  0
   -5.0813   -1.2250   -2.9954 C   0  0  0  0  0  0  0  0  0  0  0  0
   -4.4436   -2.3430   -3.4772 C   0  0  0  0  0  0  0  0  0  0  0  0
   -3.3735   -2.6531   -2.7003 O   0  0  0  0  0  0  0  0  0  0  0  0
   -2.2170   -0.9320    0.2478 N   0  0  0  0  0  0  0  0  0  0  0  0
   -1.2341   -0.9677    1.2106 N   0  0  0  0  0  0  0  0  0  0  0  0
    1.9915    0.7461    1.7056 N   0  0  0  0  0  0  0  0  0  0  0  0
    2.5578    1.7377    0.8816 C   0  0  0  0  0  0  0  0  0  0  0  0
    3.6293    1.3524    0.0647 C   0  0  0  0  0  0  0  0  0  0  0  0
    4.2482    2.2744   -0.7837 C   0  0  0  0  0  0  0  0  0  0  0  0
    3.8003    3.5916   -0.8240 C   0  0  0  0  0  0  0  0  0  0  0  0
    2.7351    3.9835   -0.0169 C   0  0  0  0  0  0  0  0  0  0  0  0
    2.1160    3.0604    0.8326 C   0  0  0  0  0  0  0  0  0  0  0  0
    1.1917   -0.4123    4.2646 H   0  0  0  0  0  0  0  0  0  0  0  0
   -0.4619   -0.4020    3.6349 H   0  0  0  0  0  0  0  0  0  0  0  0
    0.4760   -3.6633    0.1574 H   0  0  0  0  0  0  0  0  0  0  0  0
   -1.2927   -3.6001   -1.5818 H   0  0  0  0  0  0  0  0  0  0  0  0
   -4.5563    0.0204   -1.2009 H   0  0  0  0  0  0  0  0  0  0  0  0
   -5.9595   -0.7573   -3.4178 H   0  0  0  0  0  0  0  0  0  0  0  0
   -4.6167   -2.9996   -4.3186 H   0  0  0  0  0  0  0  0  0  0  0  0
    2.3843   -0.1845    1.6226 H   0  0  0  0  0  0  0  0  0  0  0  0
    3.9989    0.3306    0.0767 H   0  0  0  0  0  0  0  0  0  0  0  0
    5.0786    1.9636   -1.4121 H   0  0  0  0  0  0  0  0  0  0  0  0
    4.2779    4.3121   -1.4826 H   0  0  0  0  0  0  0  0  0  0  0  0
    2.3788    5.0102   -0.0450 H   0  0  0  0  0  0  0  0  0  0  0  0
    1.2870    3.4087    1.4405 H   0  0  0  0  0  0  0  0  0  0  0  0
  1  2  2  0
  2  3  1  0
  3  4  1  0
  4  5  1  0
  5  6  2  0
  6  7  1  0
  7  8  2  0
  8  9  1  0
  9 10  2  0
 10 11  1  0
 11 12  2  0
 12 13  1  0
  8 14  1  0
 14 15  2  0
  2 16  1  0
 16 17  1  0
 17 18  2  0
 18 19  1  0
 19 20  2  0
 20 21  1  0
 21 22  2  0
 15  5  1  0
 22 17  1  0
 13  9  1  0
  3 23  1  0
  3 24  1  0
  6 25  1  0
  7 26  1  0
 10 27  1  0
 11 28  1  0
 12 29  1  0
 16 30  1  0
 18 31  1  0
 19 32  1  0
 20 33  1  0
 21 34  1  0
 22 35  1  0
M  END
>  <docking_id>  (16) 
PKM2_r16_cid24815762

>  <target>  (16) 
PKM2

>  <compound_id>  (16) 
24815762

>  <admet_priority_rank>  (16) 
16

>  <priority_score>  (16) 
0.630046690275229

>  <ensemble_calibrated_mean>  (16) 
0.2111111119389534

>  <admet_support_score>  (16) 
0.685128942481724

>  <toxicity_burden>  (16) 
0.457709936

>  <label>  (16) 
1

$$$$
PKM2_r17_cid51086450
     RDKit          3D

 39 41  0  0  0  0  0  0  0  0999 V2000
   -5.8444   -1.3139    2.5268 C   0  0  0  0  0  0  0  0  0  0  0  0
   -6.5562   -0.6246    1.5077 O   0  0  0  0  0  0  0  0  0  0  0  0
   -5.8181   -0.0629    0.5020 C   0  0  0  0  0  0  0  0  0  0  0  0
   -6.5689    0.6053   -0.4650 C   0  0  0  0  0  0  0  0  0  0  0  0
   -5.9398    1.2214   -1.5445 C   0  0  0  0  0  0  0  0  0  0  0  0
   -4.5496    1.1741   -1.6651 C   0  0  0  0  0  0  0  0  0  0  0  0
   -3.7818    0.5120   -0.7066 C   0  0  0  0  0  0  0  0  0  0  0  0
   -2.3755    0.4150   -0.7576 N   0  0  0  0  0  0  0  0  0  0  0  0
   -1.5143    0.9903   -1.6806 C   0  0  0  0  0  0  0  0  0  0  0  0
   -1.8337    1.7008   -2.6296 O   0  0  0  0  0  0  0  0  0  0  0  0
   -0.0591    0.6095   -1.4504 C   0  0  0  0  0  0  0  0  0  0  0  0
    0.4915    1.1870    0.1910 S   0  0  0  0  0  0  0  0  0  0  0  0
    2.1909    0.6658    0.1430 C   0  0  0  0  0  0  0  0  0  0  0  0
    3.0995    1.1898    1.0477 C   0  0  0  0  0  0  0  0  0  0  0  0
    4.4230    0.7538    1.0040 C   0  0  0  0  0  0  0  0  0  0  0  0
    4.7837   -0.1937    0.0592 C   0  0  0  0  0  0  0  0  0  0  0  0
    6.1307   -0.7204   -0.0797 C   0  0  0  0  0  0  0  0  0  0  0  0
    6.7153   -1.6400   -0.9299 C   0  0  0  0  0  0  0  0  0  0  0  0
    8.0795   -1.7277   -0.5617 C   0  0  0  0  0  0  0  0  0  0  0  0
    8.2470   -0.8585    0.4896 C   0  0  0  0  0  0  0  0  0  0  0  0
    7.0741   -0.2433    0.7903 O   0  0  0  0  0  0  0  0  0  0  0  0
    3.8738   -0.6933   -0.8069 N   0  0  0  0  0  0  0  0  0  0  0  0
    2.5684   -0.2610   -0.7610 N   0  0  0  0  0  0  0  0  0  0  0  0
   -4.4265   -0.1079    0.3770 C   0  0  0  0  0  0  0  0  0  0  0  0
   -5.3016   -2.1722    2.1173 H   0  0  0  0  0  0  0  0  0  0  0  0
   -6.5755   -1.6951    3.2463 H   0  0  0  0  0  0  0  0  0  0  0  0
   -5.1701   -0.6383    3.0635 H   0  0  0  0  0  0  0  0  0  0  0  0
   -7.6518    0.6458   -0.3767 H   0  0  0  0  0  0  0  0  0  0  0  0
   -6.5304    1.7400   -2.2952 H   0  0  0  0  0  0  0  0  0  0  0  0
   -4.0991    1.6640   -2.5225 H   0  0  0  0  0  0  0  0  0  0  0  0
   -1.9317   -0.0785    0.0082 H   0  0  0  0  0  0  0  0  0  0  0  0
    0.5518    1.0763   -2.2299 H   0  0  0  0  0  0  0  0  0  0  0  0
    0.0294   -0.4789   -1.5314 H   0  0  0  0  0  0  0  0  0  0  0  0
    2.7965    1.9304    1.7808 H   0  0  0  0  0  0  0  0  0  0  0  0
    5.1528    1.1538    1.7005 H   0  0  0  0  0  0  0  0  0  0  0  0
    6.2087   -2.1781   -1.7199 H   0  0  0  0  0  0  0  0  0  0  0  0
    8.8451   -2.3470   -1.0076 H   0  0  0  0  0  0  0  0  0  0  0  0
    9.0930   -0.5771    1.1013 H   0  0  0  0  0  0  0  0  0  0  0  0
   -3.8267   -0.6229    1.1187 H   0  0  0  0  0  0  0  0  0  0  0  0
  1  2  1  0
  2  3  1  0
  3  4  2  0
  4  5  1  0
  5  6  2  0
  6  7  1  0
  7  8  1  0
  8  9  1  0
  9 10  2  0
  9 11  1  0
 11 12  1  0
 12 13  1  0
 13 14  2  0
 14 15  1  0
 15 16  2  0
 16 17  1  0
 17 18  2  0
 18 19  1  0
 19 20  2  0
 20 21  1  0
 16 22  1  0
 22 23  2  0
  7 24  2  0
 24  3  1  0
 23 13  1  0
 21 17  1  0
  1 25  1  0
  1 26  1  0
  1 27  1  0
  4 28  1  0
  5 29  1  0
  6 30  1  0
  8 31  1  0
 11 32  1  0
 11 33  1  0
 14 34  1  0
 15 35  1  0
 18 36  1  0
 19 37  1  0
 20 38  1  0
 24 39  1  0
M  END
>  <docking_id>  (17) 
PKM2_r17_cid51086450

>  <target>  (17) 
PKM2

>  <compound_id>  (17) 
51086450

>  <admet_priority_rank>  (17) 
17

>  <priority_score>  (17) 
0.6320961817878987

>  <ensemble_calibrated_mean>  (17) 
0.2111111119389534

>  <admet_support_score>  (17) 
0.6322637754831448

>  <toxicity_burden>  (17) 
0.4953168422

>  <label>  (17) 
1

$$$$
PKM2_r18_cid49643082
     RDKit          3D

 39 41  0  0  0  0  0  0  0  0999 V2000
   -5.1887   -0.9045    1.6652 C   0  0  0  0  0  0  0  0  0  0  0  0
   -4.0755   -0.7628    0.6618 C   0  0  0  0  0  0  0  0  0  0  0  0
   -3.3882   -1.9120    0.2353 C   0  0  0  0  0  0  0  0  0  0  0  0
   -2.3566   -1.8219   -0.6983 C   0  0  0  0  0  0  0  0  0  0  0  0
   -2.0019   -0.5727   -1.2064 C   0  0  0  0  0  0  0  0  0  0  0  0
   -0.6876   -0.4619   -2.3955 S   0  0  0  0  0  0  0  0  0  0  0  0
   -0.7238   -1.6596   -3.2046 O   0  0  0  0  0  0  0  0  0  0  0  0
   -0.7172    0.8591   -2.9826 O   0  0  0  0  0  0  0  0  0  0  0  0
    0.6778   -0.5714   -1.4392 N   0  0  0  0  0  0  0  0  0  0  0  0
    0.9087    0.4302   -0.4080 C   0  0  0  0  0  0  0  0  0  0  0  0
    2.3261    0.3499    0.1066 C   0  0  0  0  0  0  0  0  0  0  0  0
    2.5989   -0.1866    1.3865 C   0  0  0  0  0  0  0  0  0  0  0  0
    3.9111   -0.2779    1.8626 C   0  0  0  0  0  0  0  0  0  0  0  0
    4.9241    0.1665    1.0415 C   0  0  0  0  0  0  0  0  0  0  0  0
    4.6706    0.6831   -0.2066 C   0  0  0  0  0  0  0  0  0  0  0  0
    3.3888    0.7861   -0.7036 C   0  0  0  0  0  0  0  0  0  0  0  0
    5.8062    1.0581   -0.8534 O   0  0  0  0  0  0  0  0  0  0  0  0
    6.8042    0.7178    0.1310 C   0  0  0  0  0  0  0  0  0  0  0  0
    6.2511    0.1521    1.3379 O   0  0  0  0  0  0  0  0  0  0  0  0
   -2.6849    0.5804   -0.8100 C   0  0  0  0  0  0  0  0  0  0  0  0
   -3.7241    0.4965    0.1297 C   0  0  0  0  0  0  0  0  0  0  0  0
   -4.4457    1.7511    0.5424 C   0  0  0  0  0  0  0  0  0  0  0  0
   -4.9825   -0.2966    2.5518 H   0  0  0  0  0  0  0  0  0  0  0  0
   -5.2998   -1.9419    1.9986 H   0  0  0  0  0  0  0  0  0  0  0  0
   -6.1404   -0.5951    1.2219 H   0  0  0  0  0  0  0  0  0  0  0  0
   -3.6610   -2.8911    0.6254 H   0  0  0  0  0  0  0  0  0  0  0  0
   -1.8448   -2.7234   -1.0271 H   0  0  0  0  0  0  0  0  0  0  0  0
    1.0229   -1.5161   -1.2871 H   0  0  0  0  0  0  0  0  0  0  0  0
    0.2146    0.2668    0.4236 H   0  0  0  0  0  0  0  0  0  0  0  0
    0.7312    1.4409   -0.7918 H   0  0  0  0  0  0  0  0  0  0  0  0
    1.7854   -0.5363    2.0195 H   0  0  0  0  0  0  0  0  0  0  0  0
    4.1276   -0.6855    2.8436 H   0  0  0  0  0  0  0  0  0  0  0  0
    3.2130    1.1883   -1.6968 H   0  0  0  0  0  0  0  0  0  0  0  0
    7.3620    1.6243    0.3927 H   0  0  0  0  0  0  0  0  0  0  0  0
    7.4984   -0.0072   -0.3096 H   0  0  0  0  0  0  0  0  0  0  0  0
   -2.4120    1.5453   -1.2348 H   0  0  0  0  0  0  0  0  0  0  0  0
   -5.5099    1.6756    0.2981 H   0  0  0  0  0  0  0  0  0  0  0  0
   -4.3275    1.9212    1.6171 H   0  0  0  0  0  0  0  0  0  0  0  0
   -4.0505    2.6313    0.0242 H   0  0  0  0  0  0  0  0  0  0  0  0
  1  2  1  0
  2  3  2  0
  3  4  1  0
  4  5  2  0
  5  6  1  0
  6  7  2  0
  6  8  2  0
  6  9  1  0
  9 10  1  0
 10 11  1  0
 11 12  2  0
 12 13  1  0
 13 14  2  0
 14 15  1  0
 15 16  2  0
 15 17  1  0
 17 18  1  0
 18 19  1  0
  5 20  1  0
 20 21  2  0
 21 22  1  0
 21  2  1  0
 16 11  1  0
 19 14  1  0
  1 23  1  0
  1 24  1  0
  1 25  1  0
  3 26  1  0
  4 27  1  0
  9 28  1  0
 10 29  1  0
 10 30  1  0
 12 31  1  0
 13 32  1  0
 16 33  1  0
 18 34  1  0
 18 35  1  0
 20 36  1  0
 22 37  1  0
 22 38  1  0
 22 39  1  0
M  END
>  <docking_id>  (18) 
PKM2_r18_cid49643082

>  <target>  (18) 
PKM2

>  <compound_id>  (18) 
49643082

>  <admet_priority_rank>  (18) 
18

>  <priority_score>  (18) 
0.62848163012658

>  <ensemble_calibrated_mean>  (18) 
0.2063829809427261

>  <admet_support_score>  (18) 
0.6703162010613757

>  <toxicity_burden>  (18) 
0.5259411206

>  <label>  (18) 
0

$$$$
PKM2_r19_cid24787624
     RDKit          3D

 30 32  0  0  0  0  0  0  0  0999 V2000
    3.7481   -0.9028    1.7599 C   0  0  0  0  0  0  0  0  0  0  0  0
    3.5040    0.4471    1.2643 N   0  0  0  0  0  0  0  0  0  0  0  0
    3.1525    0.6510   -0.3642 S   0  0  0  0  0  0  0  0  0  0  0  0
    3.4052    2.0437   -0.6604 O   0  0  0  0  0  0  0  0  0  0  0  0
    3.7800   -0.4145   -1.1107 O   0  0  0  0  0  0  0  0  0  0  0  0
    1.3942    0.4106   -0.3900 C   0  0  0  0  0  0  0  0  0  0  0  0
    0.8711   -0.8410   -0.7111 C   0  0  0  0  0  0  0  0  0  0  0  0
   -0.5167   -1.0076   -0.7478 C   0  0  0  0  0  0  0  0  0  0  0  0
   -1.3872    0.0641   -0.4851 C   0  0  0  0  0  0  0  0  0  0  0  0
   -2.7827   -0.0884   -0.5236 C   0  0  0  0  0  0  0  0  0  0  0  0
   -3.6347    0.9895   -0.2607 C   0  0  0  0  0  0  0  0  0  0  0  0
   -3.0964    2.2368    0.0428 C   0  0  0  0  0  0  0  0  0  0  0  0
   -1.7113    2.4077    0.0851 C   0  0  0  0  0  0  0  0  0  0  0  0
   -0.8445    1.3335   -0.1746 C   0  0  0  0  0  0  0  0  0  0  0  0
    0.5488    1.4957   -0.1325 C   0  0  0  0  0  0  0  0  0  0  0  0
   -3.3569   -1.4133   -0.8496 C   0  0  0  0  0  0  0  0  0  0  0  0
   -4.5665   -1.6025   -0.8786 O   0  0  0  0  0  0  0  0  0  0  0  0
   -2.4565   -2.4189   -1.1108 N   0  0  0  0  0  0  0  0  0  0  0  0
   -1.0854   -2.3370   -1.0645 C   0  0  0  0  0  0  0  0  0  0  0  0
   -0.3684   -3.3099   -1.2611 O   0  0  0  0  0  0  0  0  0  0  0  0
    4.7435   -1.2422    1.4614 H   0  0  0  0  0  0  0  0  0  0  0  0
    3.7073   -0.8910    2.8530 H   0  0  0  0  0  0  0  0  0  0  0  0
    2.9916   -1.6061    1.4038 H   0  0  0  0  0  0  0  0  0  0  0  0
    4.0812    1.2028    1.6325 H   0  0  0  0  0  0  0  0  0  0  0  0
    1.5301   -1.6798   -0.9305 H   0  0  0  0  0  0  0  0  0  0  0  0
   -4.7149    0.8591   -0.2941 H   0  0  0  0  0  0  0  0  0  0  0  0
   -3.7552    3.0784    0.2458 H   0  0  0  0  0  0  0  0  0  0  0  0
   -1.3130    3.3931    0.3230 H   0  0  0  0  0  0  0  0  0  0  0  0
    0.9793    2.4693    0.1000 H   0  0  0  0  0  0  0  0  0  0  0  0
   -2.8464   -3.3273   -1.3199 H   0  0  0  0  0  0  0  0  0  0  0  0
  1  2  1  0
  2  3  1  0
  3  4  2  0
  3  5  2  0
  3  6  1  0
  6  7  2  0
  7  8  1  0
  8  9  2  0
  9 10  1  0
 10 11  2  0
 11 12  1  0
 12 13  2  0
 13 14  1  0
 14 15  2  0
 10 16  1  0
 16 17  2  0
 16 18  1  0
 18 19  1  0
 19 20  2  0
 15  6  1  0
 19  8  1  0
 14  9  1  0
  1 21  1  0
  1 22  1  0
  1 23  1  0
  2 24  1  0
  7 25  1  0
 11 26  1  0
 12 27  1  0
 13 28  1  0
 15 29  1  0
 18 30  1  0
M  END
>  <docking_id>  (19) 
PKM2_r19_cid24787624

>  <target>  (19) 
PKM2

>  <compound_id>  (19) 
24787624

>  <admet_priority_rank>  (19) 
19

>  <priority_score>  (19) 
0.6317161968160243

>  <ensemble_calibrated_mean>  (19) 
0.2063829809427261

>  <admet_support_score>  (19) 
0.6022753638969301

>  <toxicity_burden>  (19) 
0.4881026227199999

>  <label>  (19) 
1

$$$$
PKM2_r20_cid14733227
     RDKit          3D

 47 49  0  0  0  0  0  0  0  0999 V2000
   -3.9860   -1.8751    3.9061 C   0  0  0  0  0  0  0  0  0  0  0  0
   -3.2819   -1.7228    2.6779 O   0  0  0  0  0  0  0  0  0  0  0  0
   -3.5516   -0.6028    1.9436 C   0  0  0  0  0  0  0  0  0  0  0  0
   -4.4329    0.4179    2.2916 C   0  0  0  0  0  0  0  0  0  0  0  0
   -4.6110    1.5100    1.4386 C   0  0  0  0  0  0  0  0  0  0  0  0
   -3.9068    1.5905    0.2366 C   0  0  0  0  0  0  0  0  0  0  0  0
   -3.0133    0.5747   -0.1260 C   0  0  0  0  0  0  0  0  0  0  0  0
   -2.2299    0.6567   -1.4060 C   0  0  0  0  0  0  0  0  0  0  0  0
   -0.7508    0.8260   -1.1944 N   0  0  0  0  0  0  0  0  0  0  0  0
    0.0567    0.7090   -2.4688 C   0  0  0  0  0  0  0  0  0  0  0  0
    1.5745    0.6069   -2.1698 C   0  0  0  0  0  0  0  0  0  0  0  0
    1.9423    1.1844   -0.8314 N   0  0  0  0  0  0  0  0  0  0  0  0
    2.0092    0.0528    0.4585 S   0  0  0  0  0  0  0  0  0  0  0  0
    0.8117   -0.7513    0.2812 O   0  0  0  0  0  0  0  0  0  0  0  0
    2.2425    0.7939    1.6733 O   0  0  0  0  0  0  0  0  0  0  0  0
    3.4389   -0.9124    0.0846 C   0  0  0  0  0  0  0  0  0  0  0  0
    4.6715   -0.2684   -0.0662 C   0  0  0  0  0  0  0  0  0  0  0  0
    5.8052   -1.0205   -0.3781 C   0  0  0  0  0  0  0  0  0  0  0  0
    5.6980   -2.4035   -0.5328 C   0  0  0  0  0  0  0  0  0  0  0  0
    7.2339   -3.4190   -0.9582 Br  0  0  0  0  0  0  0  0  0  0  0  0
    4.4680   -3.0449   -0.3744 C   0  0  0  0  0  0  0  0  0  0  0  0
    3.3298   -2.2983   -0.0626 C   0  0  0  0  0  0  0  0  0  0  0  0
    1.1194    2.3995   -0.5245 C   0  0  0  0  0  0  0  0  0  0  0  0
   -0.3798    2.0616   -0.3771 C   0  0  0  0  0  0  0  0  0  0  0  0
   -2.8487   -0.5201    0.7378 C   0  0  0  0  0  0  0  0  0  0  0  0
   -5.0661   -1.9357    3.7363 H   0  0  0  0  0  0  0  0  0  0  0  0
   -3.7392   -1.0680    4.6036 H   0  0  0  0  0  0  0  0  0  0  0  0
   -3.6659   -2.8180    4.3598 H   0  0  0  0  0  0  0  0  0  0  0  0
   -5.0009    0.3934    3.2168 H   0  0  0  0  0  0  0  0  0  0  0  0
   -5.3087    2.2983    1.7162 H   0  0  0  0  0  0  0  0  0  0  0  0
   -4.0753    2.4521   -0.4069 H   0  0  0  0  0  0  0  0  0  0  0  0
   -2.5622    1.4936   -2.0313 H   0  0  0  0  0  0  0  0  0  0  0  0
   -2.3737   -0.2684   -1.9768 H   0  0  0  0  0  0  0  0  0  0  0  0
   -0.4552    0.0219   -0.6023 H   0  0  0  0  0  0  0  0  0  0  0  0
   -0.2845   -0.1789   -3.0110 H   0  0  0  0  0  0  0  0  0  0  0  0
   -0.1664    1.5998   -3.0667 H   0  0  0  0  0  0  0  0  0  0  0  0
    2.1396    1.1381   -2.9444 H   0  0  0  0  0  0  0  0  0  0  0  0
    1.8917   -0.4393   -2.2348 H   0  0  0  0  0  0  0  0  0  0  0  0
    4.7591    0.8082    0.0661 H   0  0  0  0  0  0  0  0  0  0  0  0
    6.7673   -0.5250   -0.4909 H   0  0  0  0  0  0  0  0  0  0  0  0
    4.3920   -4.1249   -0.4838 H   0  0  0  0  0  0  0  0  0  0  0  0
    2.3789   -2.8085    0.0733 H   0  0  0  0  0  0  0  0  0  0  0  0
    1.2520    3.1090   -1.3516 H   0  0  0  0  0  0  0  0  0  0  0  0
    1.4960    2.9115    0.3668 H   0  0  0  0  0  0  0  0  0  0  0  0
   -0.9968    2.8984   -0.7209 H   0  0  0  0  0  0  0  0  0  0  0  0
   -0.6208    1.8316    0.6658 H   0  0  0  0  0  0  0  0  0  0  0  0
   -2.1698   -1.3340    0.4862 H   0  0  0  0  0  0  0  0  0  0  0  0
  1  2  1  0
  2  3  1  0
  3  4  2  0
  4  5  1  0
  5  6  2  0
  6  7  1  0
  7  8  1  0
  8  9  1  0
  9 10  1  0
 10 11  1  0
 11 12  1  0
 12 13  1  0
 13 14  2  0
 13 15  2  0
 13 16  1  0
 16 17  2  0
 17 18  1  0
 18 19  2  0
 19 20  1  0
 19 21  1  0
 21 22  2  0
 12 23  1  0
 23 24  1  0
  7 25  2  0
 25  3  1  0
 24  9  1  0
 22 16  1  0
  1 26  1  0
  1 27  1  0
  1 28  1  0
  4 29  1  0
  5 30  1  0
  6 31  1  0
  8 32  1  0
  8 33  1  0
  9 34  1  0
 10 35  1  0
 10 36  1  0
 11 37  1  0
 11 38  1  0
 17 39  1  0
 18 40  1  0
 21 41  1  0
 22 42  1  0
 23 43  1  0
 23 44  1  0
 24 45  1  0
 24 46  1  0
 25 47  1  0
M  CHG  1   9   1
M  END
>  <docking_id>  (20) 
PKM2_r20_cid14733227

>  <target>  (20) 
PKM2

>  <compound_id>  (20) 
14733227

>  <admet_priority_rank>  (20) 
20

>  <priority_score>  (20) 
0.6320787712904775

>  <ensemble_calibrated_mean>  (20) 
0.2111111119389534

>  <admet_support_score>  (20) 
0.5617167625057063

>  <toxicity_burden>  (20) 
0.33921508395368

>  <label>  (20) 
0

$$$$
PKM2_r21_cid7977776
     RDKit          3D

 47 49  0  0  0  0  0  0  0  0999 V2000
    7.7855   -0.4151    0.9867 C   0  0  0  0  0  0  0  0  0  0  0  0
    6.8481    0.6164    1.2738 O   0  0  0  0  0  0  0  0  0  0  0  0
    5.6370    0.5500    0.6444 C   0  0  0  0  0  0  0  0  0  0  0  0
    4.8051    1.6525    0.8707 C   0  0  0  0  0  0  0  0  0  0  0  0
    3.5358    1.7209    0.2944 C   0  0  0  0  0  0  0  0  0  0  0  0
    3.0967    0.6669   -0.5068 C   0  0  0  0  0  0  0  0  0  0  0  0
    1.4866    0.7125   -1.2308 S   0  0  0  0  0  0  0  0  0  0  0  0
    1.6033    0.4340   -2.6422 O   0  0  0  0  0  0  0  0  0  0  0  0
    0.7718    1.8775   -0.7525 O   0  0  0  0  0  0  0  0  0  0  0  0
    0.6962   -0.6280   -0.5072 N   0  0  0  0  0  0  0  0  0  0  0  0
    0.4333   -0.5281    0.9616 C   0  0  0  0  0  0  0  0  0  0  0  0
   -0.7984    0.3408    1.2924 C   0  0  0  0  0  0  0  0  0  0  0  0
   -2.0214   -0.0874    0.4857 N   0  0  0  0  0  0  0  0  0  0  0  0
   -3.2014    0.8141    0.7795 C   0  0  0  0  0  0  0  0  0  0  0  0
   -4.5064    0.2568    0.2794 C   0  0  0  0  0  0  0  0  0  0  0  0
   -5.1441    0.8185   -0.8378 C   0  0  0  0  0  0  0  0  0  0  0  0
   -6.3427    0.2821   -1.3145 C   0  0  0  0  0  0  0  0  0  0  0  0
   -6.9179   -0.8199   -0.6828 C   0  0  0  0  0  0  0  0  0  0  0  0
   -6.2954   -1.3792    0.4286 C   0  0  0  0  0  0  0  0  0  0  0  0
   -6.9946   -2.7393    1.2127 Cl  0  0  0  0  0  0  0  0  0  0  0  0
   -5.0982   -0.8483    0.9128 C   0  0  0  0  0  0  0  0  0  0  0  0
   -1.7180   -0.1743   -1.0121 C   0  0  0  0  0  0  0  0  0  0  0  0
   -0.5113   -1.0952   -1.2536 C   0  0  0  0  0  0  0  0  0  0  0  0
    3.9187   -0.4374   -0.7479 C   0  0  0  0  0  0  0  0  0  0  0  0
    5.1901   -0.4941   -0.1683 C   0  0  0  0  0  0  0  0  0  0  0  0
    8.0202   -0.4504   -0.0824 H   0  0  0  0  0  0  0  0  0  0  0  0
    7.4234   -1.3844    1.3445 H   0  0  0  0  0  0  0  0  0  0  0  0
    8.7104   -0.1854    1.5243 H   0  0  0  0  0  0  0  0  0  0  0  0
    5.1618    2.4704    1.4946 H   0  0  0  0  0  0  0  0  0  0  0  0
    2.9173    2.5975    0.4703 H   0  0  0  0  0  0  0  0  0  0  0  0
    1.3141   -0.1495    1.4888 H   0  0  0  0  0  0  0  0  0  0  0  0
    0.2704   -1.5464    1.3368 H   0  0  0  0  0  0  0  0  0  0  0  0
   -1.0614    0.2216    2.3491 H   0  0  0  0  0  0  0  0  0  0  0  0
   -0.6346    1.4023    1.0945 H   0  0  0  0  0  0  0  0  0  0  0  0
   -2.2802   -1.0320    0.7941 H   0  0  0  0  0  0  0  0  0  0  0  0
   -3.2575    0.9323    1.8685 H   0  0  0  0  0  0  0  0  0  0  0  0
   -2.9817    1.7969    0.3459 H   0  0  0  0  0  0  0  0  0  0  0  0
   -4.7251    1.6844   -1.3499 H   0  0  0  0  0  0  0  0  0  0  0  0
   -6.8363    0.7260   -2.1779 H   0  0  0  0  0  0  0  0  0  0  0  0
   -7.8531   -1.2309   -1.0576 H   0  0  0  0  0  0  0  0  0  0  0  0
   -4.6450   -1.2972    1.7942 H   0  0  0  0  0  0  0  0  0  0  0  0
   -1.5480    0.8444   -1.3725 H   0  0  0  0  0  0  0  0  0  0  0  0
   -2.6013   -0.5940   -1.5017 H   0  0  0  0  0  0  0  0  0  0  0  0
   -0.7454   -2.1122   -0.9142 H   0  0  0  0  0  0  0  0  0  0  0  0
   -0.2989   -1.1771   -2.3241 H   0  0  0  0  0  0  0  0  0  0  0  0
    3.5833   -1.2508   -1.3884 H   0  0  0  0  0  0  0  0  0  0  0  0
    5.8094   -1.3624   -0.3724 H   0  0  0  0  0  0  0  0  0  0  0  0
  1  2  1  0
  2  3  1  0
  3  4  2  0
  4  5  1  0
  5  6  2  0
  6  7  1  0
  7  8  2  0
  7  9  2  0
  7 10  1  0
 10 11  1  0
 11 12  1  0
 12 13  1  0
 13 14  1  0
 14 15  1  0
 15 16  2  0
 16 17  1  0
 17 18  2  0
 18 19  1  0
 19 20  1  0
 19 21  2  0
 13 22  1  0
 22 23  1  0
  6 24  1  0
 24 25  2  0
 25  3  1  0
 23 10  1  0
 21 15  1  0
  1 26  1  0
  1 27  1  0
  1 28  1  0
  4 29  1  0
  5 30  1  0
 11 31  1  0
 11 32  1  0
 12 33  1  0
 12 34  1  0
 13 35  1  0
 14 36  1  0
 14 37  1  0
 16 38  1  0
 17 39  1  0
 18 40  1  0
 21 41  1  0
 22 42  1  0
 22 43  1  0
 23 44  1  0
 23 45  1  0
 24 46  1  0
 25 47  1  0
M  CHG  1  13   1
M  END
>  <docking_id>  (21) 
PKM2_r21_cid7977776

>  <target>  (21) 
PKM2

>  <compound_id>  (21) 
7977776

>  <admet_priority_rank>  (21) 
21

>  <priority_score>  (21) 
0.6240059717767653

>  <ensemble_calibrated_mean>  (21) 
0.2035038783739226

>  <admet_support_score>  (21) 
0.5675298864942794

>  <toxicity_burden>  (21) 
0.33550738402128

>  <label>  (21) 
0

$$$$
PKM2_r22_cid47203229
     RDKit          3D

 48 50  0  0  0  0  0  0  0  0999 V2000
   -5.6165    1.3704    1.7279 C   0  0  0  0  0  0  0  0  0  0  0  0
   -4.6172    0.2517    1.9792 C   0  0  0  0  0  0  0  0  0  0  0  0
   -3.8698   -0.1237    0.7244 C   0  0  0  0  0  0  0  0  0  0  0  0
   -4.3628   -1.1223   -0.1251 C   0  0  0  0  0  0  0  0  0  0  0  0
   -3.6836   -1.4539   -1.2998 C   0  0  0  0  0  0  0  0  0  0  0  0
   -2.5116   -0.7791   -1.6495 C   0  0  0  0  0  0  0  0  0  0  0  0
   -1.8443   -1.1520   -2.7830 O   0  0  0  0  0  0  0  0  0  0  0  0
   -2.5269   -0.6953   -3.9527 C   0  0  0  0  0  0  0  0  0  0  0  0
   -2.0017    0.2017   -0.7991 C   0  0  0  0  0  0  0  0  0  0  0  0
   -0.5038    1.0593   -1.1996 S   0  0  0  0  0  0  0  0  0  0  0  0
   -0.1268    1.8652   -0.0542 O   0  0  0  0  0  0  0  0  0  0  0  0
   -0.6759    1.6649   -2.5031 O   0  0  0  0  0  0  0  0  0  0  0  0
    0.6616   -0.1746   -1.3134 N   0  0  0  0  0  0  0  0  0  0  0  0
    0.9637   -0.9184   -0.0544 C   0  0  0  0  0  0  0  0  0  0  0  0
    2.2702   -0.4469    0.6023 C   0  0  0  0  0  0  0  0  0  0  0  0
    3.4230   -0.4758   -0.3097 N   0  0  0  0  0  0  0  0  0  0  0  0
    4.6551    0.1168    0.0171 C   0  0  0  0  0  0  0  0  0  0  0  0
    5.4408    0.4547   -0.8690 O   0  0  0  0  0  0  0  0  0  0  0  0
    4.9708    0.3100    1.4220 C   0  0  0  0  0  0  0  0  0  0  0  0
    4.8523   -0.4970    2.5409 C   0  0  0  0  0  0  0  0  0  0  0  0
    5.3596    0.2406    3.6383 C   0  0  0  0  0  0  0  0  0  0  0  0
    5.7759    1.4452    3.1264 C   0  0  0  0  0  0  0  0  0  0  0  0
    5.5570    1.4938    1.7889 O   0  0  0  0  0  0  0  0  0  0  0  0
    3.0884   -0.6400   -1.7298 C   0  0  0  0  0  0  0  0  0  0  0  0
    1.8731    0.2145   -2.1062 C   0  0  0  0  0  0  0  0  0  0  0  0
   -2.6847    0.5403    0.3782 C   0  0  0  0  0  0  0  0  0  0  0  0
   -6.3619    1.0768    0.9811 H   0  0  0  0  0  0  0  0  0  0  0  0
   -5.1171    2.2755    1.3660 H   0  0  0  0  0  0  0  0  0  0  0  0
   -6.1442    1.6214    2.6535 H   0  0  0  0  0  0  0  0  0  0  0  0
   -5.1380   -0.6283    2.3761 H   0  0  0  0  0  0  0  0  0  0  0  0
   -3.9046    0.5575    2.7548 H   0  0  0  0  0  0  0  0  0  0  0  0
   -5.2807   -1.6513    0.1243 H   0  0  0  0  0  0  0  0  0  0  0  0
   -4.0691   -2.2462   -1.9362 H   0  0  0  0  0  0  0  0  0  0  0  0
   -3.3976   -1.3257   -4.1607 H   0  0  0  0  0  0  0  0  0  0  0  0
   -1.8367   -0.7812   -4.7971 H   0  0  0  0  0  0  0  0  0  0  0  0
   -2.8298    0.3544   -3.8663 H   0  0  0  0  0  0  0  0  0  0  0  0
    1.0359   -1.9821   -0.3136 H   0  0  0  0  0  0  0  0  0  0  0  0
    0.1428   -0.8383    0.6650 H   0  0  0  0  0  0  0  0  0  0  0  0
    2.4819   -1.0909    1.4591 H   0  0  0  0  0  0  0  0  0  0  0  0
    2.1591    0.5810    0.9666 H   0  0  0  0  0  0  0  0  0  0  0  0
    4.4689   -1.5073    2.5577 H   0  0  0  0  0  0  0  0  0  0  0  0
    5.4305   -0.0719    4.6707 H   0  0  0  0  0  0  0  0  0  0  0  0
    6.2341    2.3256    3.5556 H   0  0  0  0  0  0  0  0  0  0  0  0
    2.8689   -1.7032   -1.8848 H   0  0  0  0  0  0  0  0  0  0  0  0
    3.9340   -0.3903   -2.3773 H   0  0  0  0  0  0  0  0  0  0  0  0
    2.1116    1.2706   -1.9309 H   0  0  0  0  0  0  0  0  0  0  0  0
    1.6451    0.0789   -3.1688 H   0  0  0  0  0  0  0  0  0  0  0  0
   -2.2989    1.3251    1.0272 H   0  0  0  0  0  0  0  0  0  0  0  0
  1  2  1  0
  2  3  1  0
  3  4  2  0
  4  5  1  0
  5  6  2  0
  6  7  1  0
  7  8  1  0
  6  9  1  0
  9 10  1  0
 10 11  2  0
 10 12  2  0
 10 13  1  0
 13 14  1  0
 14 15  1  0
 15 16  1  0
 16 17  1  0
 17 18  2  0
 17 19  1  0
 19 20  2  0
 20 21  1  0
 21 22  2  0
 22 23  1  0
 16 24  1  0
 24 25  1  0
  9 26  2  0
 26  3  1  0
 25 13  1  0
 23 19  1  0
  1 27  1  0
  1 28  1  0
  1 29  1  0
  2 30  1  0
  2 31  1  0
  4 32  1  0
  5 33  1  0
  8 34  1  0
  8 35  1  0
  8 36  1  0
 14 37  1  0
 14 38  1  0
 15 39  1  0
 15 40  1  0
 20 41  1  0
 21 42  1  0
 22 43  1  0
 24 44  1  0
 24 45  1  0
 25 46  1  0
 25 47  1  0
 26 48  1  0
M  END
>  <docking_id>  (22) 
PKM2_r22_cid47203229

>  <target>  (22) 
PKM2

>  <compound_id>  (22) 
47203229

>  <admet_priority_rank>  (22) 
22

>  <priority_score>  (22) 
0.5797898656972177

>  <ensemble_calibrated_mean>  (22) 
0.17777777860562

>  <admet_support_score>  (22) 
0.7797834276957047

>  <toxicity_burden>  (22) 
0.3959319142

>  <label>  (22) 
0

$$$$
PKM2_r23_cid47203062
     RDKit          3D

 36 37  0  0  0  0  0  0  0  0999 V2000
   -3.6549   -2.0096    2.0399 C   0  0  0  0  0  0  0  0  0  0  0  0
   -3.5691   -0.7712    1.3474 O   0  0  0  0  0  0  0  0  0  0  0  0
   -2.4774   -0.5591    0.5452 C   0  0  0  0  0  0  0  0  0  0  0  0
   -1.4746   -1.5041    0.3261 C   0  0  0  0  0  0  0  0  0  0  0  0
   -0.3951   -1.2074   -0.5039 C   0  0  0  0  0  0  0  0  0  0  0  0
   -0.3134    0.0359   -1.1426 C   0  0  0  0  0  0  0  0  0  0  0  0
    1.1421    0.3790   -2.1262 S   0  0  0  0  0  0  0  0  0  0  0  0
    1.5375    1.7560   -1.9287 O   0  0  0  0  0  0  0  0  0  0  0  0
    0.8805   -0.1570   -3.4446 O   0  0  0  0  0  0  0  0  0  0  0  0
    2.3430   -0.5923   -1.4713 N   0  0  0  0  0  0  0  0  0  0  0  0
    3.0428   -0.2886   -0.2652 C   0  0  0  0  0  0  0  0  0  0  0  0
    4.1806   -1.0442    0.0218 C   0  0  0  0  0  0  0  0  0  0  0  0
    4.8664   -0.8491    1.2201 C   0  0  0  0  0  0  0  0  0  0  0  0
    4.3766    0.0883    2.1124 C   0  0  0  0  0  0  0  0  0  0  0  0
    3.2671    0.8207    1.8874 N   0  0  0  0  0  0  0  0  0  0  0  0
    2.6250    0.6164    0.7082 C   0  0  0  0  0  0  0  0  0  0  0  0
   -1.3416    0.9916   -0.9871 C   0  0  0  0  0  0  0  0  0  0  0  0
   -1.3127    2.3027   -1.7351 C   0  0  0  0  0  0  0  0  0  0  0  0
   -2.4073    0.7028   -0.0897 C   0  0  0  0  0  0  0  0  0  0  0  0
   -3.4983    1.7209    0.1592 C   0  0  0  0  0  0  0  0  0  0  0  0
   -3.7370   -2.8475    1.3400 H   0  0  0  0  0  0  0  0  0  0  0  0
   -4.5669   -1.9915    2.6443 H   0  0  0  0  0  0  0  0  0  0  0  0
   -2.8077   -2.1417    2.7210 H   0  0  0  0  0  0  0  0  0  0  0  0
   -1.4983   -2.4834    0.7928 H   0  0  0  0  0  0  0  0  0  0  0  0
    0.3722   -1.9641   -0.6453 H   0  0  0  0  0  0  0  0  0  0  0  0
    2.7781   -1.2013   -2.1619 H   0  0  0  0  0  0  0  0  0  0  0  0
    4.5482   -1.7875   -0.6796 H   0  0  0  0  0  0  0  0  0  0  0  0
    5.7591   -1.4188    1.4531 H   0  0  0  0  0  0  0  0  0  0  0  0
    4.8741    0.2777    3.0595 H   0  0  0  0  0  0  0  0  0  0  0  0
    1.7395    1.2322    0.5919 H   0  0  0  0  0  0  0  0  0  0  0  0
   -0.7381    3.0454   -1.1739 H   0  0  0  0  0  0  0  0  0  0  0  0
   -0.8882    2.1841   -2.7365 H   0  0  0  0  0  0  0  0  0  0  0  0
   -2.3191    2.6962   -1.9072 H   0  0  0  0  0  0  0  0  0  0  0  0
   -4.2163    1.7072   -0.6666 H   0  0  0  0  0  0  0  0  0  0  0  0
   -3.0760    2.7260    0.2613 H   0  0  0  0  0  0  0  0  0  0  0  0
   -4.0407    1.5350    1.0912 H   0  0  0  0  0  0  0  0  0  0  0  0
  1  2  1  0
  2  3  1  0
  3  4  2  0
  4  5  1  0
  5  6  2  0
  6  7  1  0
  7  8  2  0
  7  9  2  0
  7 10  1  0
 10 11  1  0
 11 12  2  0
 12 13  1  0
 13 14  2  0
 14 15  1  0
 15 16  2  0
  6 17  1  0
 17 18  1  0
 17 19  2  0
 19 20  1  0
 19  3  1  0
 16 11  1  0
  1 21  1  0
  1 22  1  0
  1 23  1  0
  4 24  1  0
  5 25  1  0
 10 26  1  0
 12 27  1  0
 13 28  1  0
 14 29  1  0
 16 30  1  0
 18 31  1  0
 18 32  1  0
 18 33  1  0
 20 34  1  0
 20 35  1  0
 20 36  1  0
M  END
>  <docking_id>  (23) 
PKM2_r23_cid47203062

>  <target>  (23) 
PKM2

>  <compound_id>  (23) 
47203062

>  <admet_priority_rank>  (23) 
23

>  <priority_score>  (23) 
0.5812523998907665

>  <ensemble_calibrated_mean>  (23) 
0.17777777860562

>  <admet_support_score>  (23) 
0.7402252678227261

>  <toxicity_burden>  (23) 
0.34044318698

>  <label>  (23) 
0

$$$$
PKM2_r24_cid24801862
     RDKit          3D

 46 48  0  0  0  0  0  0  0  0999 V2000
   -5.9356    3.2858    0.2040 C   0  0  0  0  0  0  0  0  0  0  0  0
   -5.2170    2.4548    1.1070 O   0  0  0  0  0  0  0  0  0  0  0  0
   -4.5479    1.3892    0.5712 C   0  0  0  0  0  0  0  0  0  0  0  0
   -3.9022    0.5766    1.5100 C   0  0  0  0  0  0  0  0  0  0  0  0
   -3.1804   -0.5465    1.1039 C   0  0  0  0  0  0  0  0  0  0  0  0
   -3.1012   -0.8511   -0.2560 C   0  0  0  0  0  0  0  0  0  0  0  0
   -2.1699   -2.2725   -0.7670 S   0  0  0  0  0  0  0  0  0  0  0  0
   -2.1378   -2.3039   -2.2145 O   0  0  0  0  0  0  0  0  0  0  0  0
   -2.6599   -3.3997   -0.0036 O   0  0  0  0  0  0  0  0  0  0  0  0
   -0.5926   -1.9069   -0.2330 N   0  0  0  0  0  0  0  0  0  0  0  0
    0.3338   -3.0704   -0.2813 C   0  0  0  0  0  0  0  0  0  0  0  0
    1.5639   -2.7633    0.5737 C   0  0  0  0  0  0  0  0  0  0  0  0
    2.1999   -1.4453    0.2048 C   0  0  0  0  0  0  0  0  0  0  0  0
    3.5255   -1.1790    0.5803 C   0  0  0  0  0  0  0  0  0  0  0  0
    4.1233    0.0484    0.2740 C   0  0  0  0  0  0  0  0  0  0  0  0
    5.4146    0.3854    0.5982 O   0  0  0  0  0  0  0  0  0  0  0  0
    6.1895   -0.5713    1.3056 C   0  0  0  0  0  0  0  0  0  0  0  0
    3.3823    1.0301   -0.4121 C   0  0  0  0  0  0  0  0  0  0  0  0
    4.0418    2.2043   -0.6808 O   0  0  0  0  0  0  0  0  0  0  0  0
    3.3179    3.2369   -1.3329 C   0  0  0  0  0  0  0  0  0  0  0  0
    2.0562    0.7671   -0.7750 C   0  0  0  0  0  0  0  0  0  0  0  0
    1.4521   -0.4615   -0.4603 C   0  0  0  0  0  0  0  0  0  0  0  0
    0.0213   -0.7206   -0.8907 C   0  0  0  0  0  0  0  0  0  0  0  0
   -3.7435   -0.0522   -1.2046 C   0  0  0  0  0  0  0  0  0  0  0  0
   -4.4666    1.0702   -0.7870 C   0  0  0  0  0  0  0  0  0  0  0  0
   -6.7152    2.7211   -0.3180 H   0  0  0  0  0  0  0  0  0  0  0  0
   -5.2589    3.7748   -0.5045 H   0  0  0  0  0  0  0  0  0  0  0  0
   -6.4270    4.0689    0.7894 H   0  0  0  0  0  0  0  0  0  0  0  0
   -3.9676    0.8211    2.5680 H   0  0  0  0  0  0  0  0  0  0  0  0
   -2.6870   -1.1738    1.8429 H   0  0  0  0  0  0  0  0  0  0  0  0
   -0.1478   -3.9676    0.1209 H   0  0  0  0  0  0  0  0  0  0  0  0
    0.6230   -3.2742   -1.3198 H   0  0  0  0  0  0  0  0  0  0  0  0
    2.2891   -3.5769    0.4561 H   0  0  0  0  0  0  0  0  0  0  0  0
    1.2758   -2.7168    1.6314 H   0  0  0  0  0  0  0  0  0  0  0  0
    4.0716   -1.9503    1.1139 H   0  0  0  0  0  0  0  0  0  0  0  0
    5.7461   -0.7961    2.2812 H   0  0  0  0  0  0  0  0  0  0  0  0
    6.3295   -1.4818    0.7138 H   0  0  0  0  0  0  0  0  0  0  0  0
    7.1777   -0.1360    1.4830 H   0  0  0  0  0  0  0  0  0  0  0  0
    3.9872    4.0954   -1.4449 H   0  0  0  0  0  0  0  0  0  0  0  0
    3.0054    2.9270   -2.3354 H   0  0  0  0  0  0  0  0  0  0  0  0
    2.4612    3.5601   -0.7324 H   0  0  0  0  0  0  0  0  0  0  0  0
    1.4667    1.5074   -1.3066 H   0  0  0  0  0  0  0  0  0  0  0  0
   -0.5686    0.1665   -0.6362 H   0  0  0  0  0  0  0  0  0  0  0  0
    0.0196   -0.8513   -1.9793 H   0  0  0  0  0  0  0  0  0  0  0  0
   -3.6922   -0.2944   -2.2639 H   0  0  0  0  0  0  0  0  0  0  0  0
   -4.9564    1.6724   -1.5455 H   0  0  0  0  0  0  0  0  0  0  0  0
  1  2  1  0
  2  3  1  0
  3  4  2  0
  4  5  1  0
  5  6  2  0
  6  7  1  0
  7  8  2  0
  7  9  2  0
  7 10  1  0
 10 11  1  0
 11 12  1  0
 12 13  1  0
 13 14  2  0
 14 15  1  0
 15 16  1  0
 16 17  1  0
 15 18  2  0
 18 19  1  0
 19 20  1  0
 18 21  1  0
 21 22  2  0
 22 23  1  0
  6 24  1  0
 24 25  2  0
 25  3  1  0
 23 10  1  0
 22 13  1  0
  1 26  1  0
  1 27  1  0
  1 28  1  0
  4 29  1  0
  5 30  1  0
 11 31  1  0
 11 32  1  0
 12 33  1  0
 12 34  1  0
 14 35  1  0
 17 36  1  0
 17 37  1  0
 17 38  1  0
 20 39  1  0
 20 40  1  0
 20 41  1  0
 21 42  1  0
 23 43  1  0
 23 44  1  0
 24 45  1  0
 25 46  1  0
M  END
>  <docking_id>  (24) 
PKM2_r24_cid24801862

>  <target>  (24) 
PKM2

>  <compound_id>  (24) 
24801862

>  <admet_priority_rank>  (24) 
24

>  <priority_score>  (24) 
0.579663697384825

>  <ensemble_calibrated_mean>  (24) 
0.17777777860562

>  <admet_support_score>  (24) 
0.7327622996656982

>  <toxicity_burden>  (24) 
0.44432723852

>  <label>  (24) 
1

$$$$
PKM2_r25_cid47197893
     RDKit          3D

 34 36  0  0  0  0  0  0  0  0999 V2000
   -0.6571   -1.0664    2.2236 N   0  0  0  0  0  0  0  0  0  0  0  0
   -1.4852   -0.6215    1.5432 C   0  0  0  0  0  0  0  0  0  0  0  0
   -2.5439   -0.1780    0.6807 C   0  0  0  0  0  0  0  0  0  0  0  0
   -3.5590   -1.1053    0.3862 C   0  0  0  0  0  0  0  0  0  0  0  0
   -4.6171   -0.7683   -0.4607 C   0  0  0  0  0  0  0  0  0  0  0  0
   -4.6769    0.5015   -1.0259 C   0  0  0  0  0  0  0  0  0  0  0  0
   -3.6789    1.4340   -0.7456 C   0  0  0  0  0  0  0  0  0  0  0  0
   -2.6081    1.0948    0.0998 C   0  0  0  0  0  0  0  0  0  0  0  0
   -1.3996    2.3522    0.4409 S   0  0  0  0  0  0  0  0  0  0  0  0
   -2.0208    3.6299    0.1539 O   0  0  0  0  0  0  0  0  0  0  0  0
   -0.8043    2.1138    1.7333 O   0  0  0  0  0  0  0  0  0  0  0  0
   -0.2666    2.1234   -0.7871 N   0  0  0  0  0  0  0  0  0  0  0  0
    0.6550    1.0489   -0.6848 C   0  0  0  0  0  0  0  0  0  0  0  0
    0.4580   -0.0743   -1.4901 C   0  0  0  0  0  0  0  0  0  0  0  0
    1.3412   -1.1513   -1.4070 C   0  0  0  0  0  0  0  0  0  0  0  0
    2.4169   -1.0964   -0.5229 C   0  0  0  0  0  0  0  0  0  0  0  0
    2.6349    0.0500    0.2500 C   0  0  0  0  0  0  0  0  0  0  0  0
    1.7466    1.1214    0.1783 C   0  0  0  0  0  0  0  0  0  0  0  0
    3.6962    0.1882    1.1079 O   0  0  0  0  0  0  0  0  0  0  0  0
    4.6810   -0.8309    0.9032 C   0  0  0  0  0  0  0  0  0  0  0  0
    4.0267   -2.1903    0.7198 C   0  0  0  0  0  0  0  0  0  0  0  0
    3.2262   -2.2022   -0.4685 O   0  0  0  0  0  0  0  0  0  0  0  0
   -3.5305   -2.1054    0.8197 H   0  0  0  0  0  0  0  0  0  0  0  0
   -5.3957   -1.4973   -0.6754 H   0  0  0  0  0  0  0  0  0  0  0  0
   -5.5037    0.7688   -1.6807 H   0  0  0  0  0  0  0  0  0  0  0  0
   -3.7449    2.4266   -1.1892 H   0  0  0  0  0  0  0  0  0  0  0  0
    0.0932    3.0143   -1.1304 H   0  0  0  0  0  0  0  0  0  0  0  0
   -0.3801   -0.1203   -2.1800 H   0  0  0  0  0  0  0  0  0  0  0  0
    1.1861   -2.0361   -2.0179 H   0  0  0  0  0  0  0  0  0  0  0  0
    1.9084    1.9934    0.8052 H   0  0  0  0  0  0  0  0  0  0  0  0
    5.2852   -0.5571    0.0295 H   0  0  0  0  0  0  0  0  0  0  0  0
    5.3349   -0.8410    1.7808 H   0  0  0  0  0  0  0  0  0  0  0  0
    4.7907   -2.9667    0.6122 H   0  0  0  0  0  0  0  0  0  0  0  0
    3.3911   -2.4519    1.5750 H   0  0  0  0  0  0  0  0  0  0  0  0
  1  2  3  0
  2  3  1  0
  3  4  2  0
  4  5  1  0
  5  6  2  0
  6  7  1  0
  7  8  2  0
  8  9  1  0
  9 10  2  0
  9 11  2  0
  9 12  1  0
 12 13  1  0
 13 14  2  0
 14 15  1  0
 15 16  2  0
 16 17  1  0
 17 18  2  0
 17 19  1  0
 19 20  1  0
 20 21  1  0
 21 22  1  0
  8  3  1  0
 18 13  1  0
 22 16  1  0
  4 23  1  0
  5 24  1  0
  6 25  1  0
  7 26  1  0
 12 27  1  0
 14 28  1  0
 15 29  1  0
 18 30  1  0
 20 31  1  0
 20 32  1  0
 21 33  1  0
 21 34  1  0
M  END
>  <docking_id>  (25) 
PKM2_r25_cid47197893

>  <target>  (25) 
PKM2

>  <compound_id>  (25) 
47197893

>  <admet_priority_rank>  (25) 
25

>  <priority_score>  (25) 
0.5789553865601902

>  <ensemble_calibrated_mean>  (25) 
0.1730496476093928

>  <admet_support_score>  (25) 
0.7362690540109555

>  <toxicity_burden>  (25) 
0.3439329992

>  <label>  (25) 
0

$$$$
PKM2_r26_cid24790031
     RDKit          3D

 59 61  0  0  0  0  0  0  0  0999 V2000
   -4.1431   -3.3333    2.2082 C   0  0  0  0  0  0  0  0  0  0  0  0
   -4.0884   -2.2516    1.1393 C   0  0  0  0  0  0  0  0  0  0  0  0
   -2.7113   -2.1318    0.4570 C   0  0  0  0  0  0  0  0  0  0  0  0
   -2.2582   -3.4086   -0.2797 C   0  0  0  0  0  0  0  0  0  0  0  0
   -3.2321   -3.9146   -1.3366 C   0  0  0  0  0  0  0  0  0  0  0  0
   -2.7000   -0.9249   -0.4923 C   0  0  0  0  0  0  0  0  0  0  0  0
   -3.7381   -0.4871   -0.9942 O   0  0  0  0  0  0  0  0  0  0  0  0
   -1.4590   -0.3864   -0.7878 N   0  0  0  0  0  0  0  0  0  0  0  0
   -0.2775   -0.8851   -0.2991 N   0  0  0  0  0  0  0  0  0  0  0  0
    0.6757   -0.2526   -0.9178 C   0  0  0  0  0  0  0  0  0  0  0  0
    2.1118   -0.4961   -0.6465 C   0  0  0  0  0  0  0  0  0  0  0  0
    2.4678   -1.3884    0.3730 C   0  0  0  0  0  0  0  0  0  0  0  0
    3.8140   -1.6403    0.6540 C   0  0  0  0  0  0  0  0  0  0  0  0
    4.8118   -0.9968   -0.0780 C   0  0  0  0  0  0  0  0  0  0  0  0
    6.1724   -1.2676    0.2353 N   0  0  0  0  0  0  0  0  0  0  0  0
    7.1980   -0.0184    0.7073 S   0  0  0  0  0  0  0  0  0  0  0  0
    6.4179    0.5730    2.1970 C   0  0  0  0  0  0  0  0  0  0  0  0
    8.4383   -0.6578    1.0927 O   0  0  0  0  0  0  0  0  0  0  0  0
    7.1734    1.0393   -0.2780 O   0  0  0  0  0  0  0  0  0  0  0  0
    4.4614   -0.1180   -1.1023 C   0  0  0  0  0  0  0  0  0  0  0  0
    3.1150    0.1357   -1.3870 C   0  0  0  0  0  0  0  0  0  0  0  0
    0.2186    0.7255   -1.9711 C   0  0  0  0  0  0  0  0  0  0  0  0
   -1.2754    0.7619   -1.6709 C   0  0  0  0  0  0  0  0  0  0  0  0
   -1.6855    2.0807   -1.0338 C   0  0  0  0  0  0  0  0  0  0  0  0
   -1.3197    2.4189    0.2787 C   0  0  0  0  0  0  0  0  0  0  0  0
   -1.6851    3.6505    0.8282 C   0  0  0  0  0  0  0  0  0  0  0  0
   -2.4315    4.5674    0.0817 C   0  0  0  0  0  0  0  0  0  0  0  0
   -2.8006    5.9001    0.6621 C   0  0  0  0  0  0  0  0  0  0  0  0
   -2.7869    4.2427   -1.2312 C   0  0  0  0  0  0  0  0  0  0  0  0
   -2.4218    3.0112   -1.7817 C   0  0  0  0  0  0  0  0  0  0  0  0
   -3.3570   -3.1876    2.9556 H   0  0  0  0  0  0  0  0  0  0  0  0
   -4.0307   -4.3317    1.7760 H   0  0  0  0  0  0  0  0  0  0  0  0
   -5.1088   -3.3029    2.7231 H   0  0  0  0  0  0  0  0  0  0  0  0
   -4.3322   -1.2909    1.6118 H   0  0  0  0  0  0  0  0  0  0  0  0
   -4.8792   -2.4304    0.4015 H   0  0  0  0  0  0  0  0  0  0  0  0
   -1.9836   -1.9243    1.2531 H   0  0  0  0  0  0  0  0  0  0  0  0
   -1.2931   -3.2384   -0.7699 H   0  0  0  0  0  0  0  0  0  0  0  0
   -2.0851   -4.2084    0.4499 H   0  0  0  0  0  0  0  0  0  0  0  0
   -3.4343   -3.1509   -2.0933 H   0  0  0  0  0  0  0  0  0  0  0  0
   -2.8071   -4.7852   -1.8469 H   0  0  0  0  0  0  0  0  0  0  0  0
   -4.1820   -4.2269   -0.8937 H   0  0  0  0  0  0  0  0  0  0  0  0
    1.6999   -1.8965    0.9539 H   0  0  0  0  0  0  0  0  0  0  0  0
    4.0644   -2.3391    1.4475 H   0  0  0  0  0  0  0  0  0  0  0  0
    6.3837   -2.1437    0.7128 H   0  0  0  0  0  0  0  0  0  0  0  0
    5.4532    1.0183    1.9493 H   0  0  0  0  0  0  0  0  0  0  0  0
    7.0699    1.3318    2.6356 H   0  0  0  0  0  0  0  0  0  0  0  0
    6.3031   -0.2606    2.8923 H   0  0  0  0  0  0  0  0  0  0  0  0
    5.2285    0.3670   -1.7026 H   0  0  0  0  0  0  0  0  0  0  0  0
    2.8827    0.8227   -2.1958 H   0  0  0  0  0  0  0  0  0  0  0  0
    0.7182    1.6942   -1.8897 H   0  0  0  0  0  0  0  0  0  0  0  0
    0.4109    0.2866   -2.9561 H   0  0  0  0  0  0  0  0  0  0  0  0
   -1.8623    0.5922   -2.5819 H   0  0  0  0  0  0  0  0  0  0  0  0
   -0.7517    1.7215    0.8909 H   0  0  0  0  0  0  0  0  0  0  0  0
   -1.3885    3.8856    1.8478 H   0  0  0  0  0  0  0  0  0  0  0  0
   -3.7442    6.2622    0.2404 H   0  0  0  0  0  0  0  0  0  0  0  0
   -2.9359    5.8302    1.7466 H   0  0  0  0  0  0  0  0  0  0  0  0
   -2.0144    6.6311    0.4499 H   0  0  0  0  0  0  0  0  0  0  0  0
   -3.3592    4.9444   -1.8340 H   0  0  0  0  0  0  0  0  0  0  0  0
   -2.7271    2.7821   -2.8007 H   0  0  0  0  0  0  0  0  0  0  0  0
  1  2  1  0
  2  3  1  0
  3  4  1  0
  4  5  1  0
  3  6  1  0
  6  7  2  0
  6  8  1  0
  8  9  1  0
  9 10  2  0
 10 11  1  0
 11 12  2  0
 12 13  1  0
 13 14  2  0
 14 15  1  0
 15 16  1  0
 16 17  1  0
 16 18  2  0
 16 19  2  0
 14 20  1  0
 20 21  2  0
 10 22  1  0
 22 23  1  0
 23 24  1  0
 24 25  2  0
 25 26  1  0
 26 27  2  0
 27 28  1  0
 27 29  1  0
 29 30  2  0
 23  8  1  0
 30 24  1  0
 21 11  1  0
  1 31  1  0
  1 32  1  0
  1 33  1  0
  2 34  1  0
  2 35  1  0
  3 36  1  0
  4 37  1  0
  4 38  1  0
  5 39  1  0
  5 40  1  0
  5 41  1  0
 12 42  1  0
 13 43  1  0
 15 44  1  0
 17 45  1  0
 17 46  1  0
 17 47  1  0
 20 48  1  0
 21 49  1  0
 22 50  1  0
 22 51  1  0
 23 52  1  0
 25 53  1  0
 26 54  1  0
 28 55  1  0
 28 56  1  0
 28 57  1  0
 29 58  1  0
 30 59  1  0
M  END
>  <docking_id>  (26) 
PKM2_r26_cid24790031

>  <target>  (26) 
PKM2

>  <compound_id>  (26) 
24790031

>  <admet_priority_rank>  (26) 
26

>  <priority_score>  (26) 
0.5772409062194082

>  <ensemble_calibrated_mean>  (26) 
0.1625

>  <admet_support_score>  (26) 
0.7097119146665687

>  <toxicity_burden>  (26) 
0.44167604404

>  <label>  (26) 
0

$$$$
PKM2_r27_cid49643274
     RDKit          3D

 34 36  0  0  0  0  0  0  0  0999 V2000
    0.6685    0.6377    1.9894 O   0  0  0  0  0  0  0  0  0  0  0  0
    1.1594    1.0581    0.6932 S   0  0  0  0  0  0  0  0  0  0  0  0
    1.4201    2.4560    0.4247 O   0  0  0  0  0  0  0  0  0  0  0  0
    2.6598    0.1853    0.3850 C   0  0  0  0  0  0  0  0  0  0  0  0
    3.2243   -0.6275    1.3743 C   0  0  0  0  0  0  0  0  0  0  0  0
    4.4164   -1.3044    1.1096 C   0  0  0  0  0  0  0  0  0  0  0  0
    5.0387   -1.1664   -0.1329 C   0  0  0  0  0  0  0  0  0  0  0  0
    4.4703   -0.3503   -1.1125 C   0  0  0  0  0  0  0  0  0  0  0  0
    3.2815    0.3255   -0.8488 C   0  0  0  0  0  0  0  0  0  0  0  0
    2.7553    1.0910   -1.8139 F   0  0  0  0  0  0  0  0  0  0  0  0
    0.1009    0.4517   -0.4806 N   0  0  0  0  0  0  0  0  0  0  0  0
   -0.2412   -0.9893   -0.4588 C   0  0  0  0  0  0  0  0  0  0  0  0
   -1.3455   -1.3105    0.5458 C   0  0  0  0  0  0  0  0  0  0  0  0
   -2.5283   -0.3888    0.4074 C   0  0  0  0  0  0  0  0  0  0  0  0
   -3.7697   -0.7626    0.9416 C   0  0  0  0  0  0  0  0  0  0  0  0
   -4.8666    0.0925    0.8454 C   0  0  0  0  0  0  0  0  0  0  0  0
   -4.7314    1.3301    0.2229 C   0  0  0  0  0  0  0  0  0  0  0  0
   -3.4971    1.7160   -0.2998 C   0  0  0  0  0  0  0  0  0  0  0  0
   -2.3825    0.8677   -0.2045 C   0  0  0  0  0  0  0  0  0  0  0  0
   -1.0641    1.3115   -0.7976 C   0  0  0  0  0  0  0  0  0  0  0  0
    2.7496   -0.7329    2.3477 H   0  0  0  0  0  0  0  0  0  0  0  0
    4.8641   -1.9356    1.8744 H   0  0  0  0  0  0  0  0  0  0  0  0
    5.9693   -1.6915   -0.3364 H   0  0  0  0  0  0  0  0  0  0  0  0
    4.9480   -0.2344   -2.0810 H   0  0  0  0  0  0  0  0  0  0  0  0
   -0.5644   -1.2684   -1.4707 H   0  0  0  0  0  0  0  0  0  0  0  0
    0.6443   -1.5986   -0.2531 H   0  0  0  0  0  0  0  0  0  0  0  0
   -1.6649   -2.3479    0.3883 H   0  0  0  0  0  0  0  0  0  0  0  0
   -0.9683   -1.2406    1.5714 H   0  0  0  0  0  0  0  0  0  0  0  0
   -3.8864   -1.7223    1.4399 H   0  0  0  0  0  0  0  0  0  0  0  0
   -5.8256   -0.2050    1.2614 H   0  0  0  0  0  0  0  0  0  0  0  0
   -5.5856    1.9981    0.1496 H   0  0  0  0  0  0  0  0  0  0  0  0
   -3.4062    2.6891   -0.7785 H   0  0  0  0  0  0  0  0  0  0  0  0
   -0.8751    2.3494   -0.5029 H   0  0  0  0  0  0  0  0  0  0  0  0
   -1.1676    1.3174   -1.8906 H   0  0  0  0  0  0  0  0  0  0  0  0
  1  2  2  0
  2  3  2  0
  2  4  1  0
  4  5  2  0
  5  6  1  0
  6  7  2  0
  7  8  1  0
  8  9  2  0
  9 10  1  0
  2 11  1  0
 11 12  1  0
 12 13  1  0
 13 14  1  0
 14 15  2  0
 15 16  1  0
 16 17  2  0
 17 18  1  0
 18 19  2  0
 19 20  1  0
  9  4  1  0
 20 11  1  0
 19 14  1  0
  5 21  1  0
  6 22  1  0
  7 23  1  0
  8 24  1  0
 12 25  1  0
 12 26  1  0
 13 27  1  0
 13 28  1  0
 15 29  1  0
 16 30  1  0
 17 31  1  0
 18 32  1  0
 20 33  1  0
 20 34  1  0
M  END
>  <docking_id>  (27) 
PKM2_r27_cid49643274

>  <target>  (27) 
PKM2

>  <compound_id>  (27) 
49643274

>  <admet_priority_rank>  (27) 
27

>  <priority_score>  (27) 
0.5832346263229066

>  <ensemble_calibrated_mean>  (27) 
0.1291666666666666

>  <admet_support_score>  (27) 
0.7937693555164151

>  <toxicity_burden>  (27) 
0.41828094656

>  <label>  (27) 
0

$$$$
PKM2_r28_cid47201282
     RDKit          3D

 33 35  0  0  0  0  0  0  0  0999 V2000
   -2.2235   -2.9075    0.8693 O   0  0  0  0  0  0  0  0  0  0  0  0
   -1.8554   -1.9956   -0.1900 S   0  0  0  0  0  0  0  0  0  0  0  0
   -1.6580   -2.4401   -1.5512 O   0  0  0  0  0  0  0  0  0  0  0  0
   -0.4695   -1.2137    0.3072 N   0  0  0  0  0  0  0  0  0  0  0  0
    0.0817   -0.1348   -0.4979 C   0  0  0  0  0  0  0  0  0  0  0  0
    1.4984    0.1752   -0.0784 C   0  0  0  0  0  0  0  0  0  0  0  0
    1.7919    1.3447    0.6608 C   0  0  0  0  0  0  0  0  0  0  0  0
    3.1002    1.6290    1.0664 C   0  0  0  0  0  0  0  0  0  0  0  0
    4.0873    0.7300    0.7266 C   0  0  0  0  0  0  0  0  0  0  0  0
    3.8117   -0.4129    0.0148 C   0  0  0  0  0  0  0  0  0  0  0  0
    2.5332   -0.7206   -0.3991 C   0  0  0  0  0  0  0  0  0  0  0  0
    4.9224   -1.1637   -0.2114 O   0  0  0  0  0  0  0  0  0  0  0  0
    5.9294   -0.3618    0.4396 C   0  0  0  0  0  0  0  0  0  0  0  0
    5.4061    0.8430    1.0374 O   0  0  0  0  0  0  0  0  0  0  0  0
   -3.0547   -0.6825   -0.2069 C   0  0  0  0  0  0  0  0  0  0  0  0
   -3.6224   -0.2611    1.0020 C   0  0  0  0  0  0  0  0  0  0  0  0
   -4.5702    0.7627    0.9925 C   0  0  0  0  0  0  0  0  0  0  0  0
   -4.9438    1.3429   -0.2167 C   0  0  0  0  0  0  0  0  0  0  0  0
   -5.8529    2.3260   -0.2211 F   0  0  0  0  0  0  0  0  0  0  0  0
   -4.3922    0.9163   -1.4219 C   0  0  0  0  0  0  0  0  0  0  0  0
   -3.4438   -0.1072   -1.4226 C   0  0  0  0  0  0  0  0  0  0  0  0
   -0.2858   -1.2291    1.3077 H   0  0  0  0  0  0  0  0  0  0  0  0
    0.0787   -0.3934   -1.5626 H   0  0  0  0  0  0  0  0  0  0  0  0
   -0.5352    0.7624   -0.3767 H   0  0  0  0  0  0  0  0  0  0  0  0
    0.9984    2.0418    0.9236 H   0  0  0  0  0  0  0  0  0  0  0  0
    3.3334    2.5249    1.6309 H   0  0  0  0  0  0  0  0  0  0  0  0
    2.3381   -1.6345   -0.9521 H   0  0  0  0  0  0  0  0  0  0  0  0
    6.4047   -0.9636    1.2228 H   0  0  0  0  0  0  0  0  0  0  0  0
    6.6891   -0.0844   -0.3003 H   0  0  0  0  0  0  0  0  0  0  0  0
   -3.3390   -0.7280    1.9429 H   0  0  0  0  0  0  0  0  0  0  0  0
   -5.0262    1.1072    1.9160 H   0  0  0  0  0  0  0  0  0  0  0  0
   -4.7109    1.3793   -2.3511 H   0  0  0  0  0  0  0  0  0  0  0  0
   -3.0213   -0.4505   -2.3648 H   0  0  0  0  0  0  0  0  0  0  0  0
  1  2  2  0
  2  3  2  0
  2  4  1  0
  4  5  1  0
  5  6  1  0
  6  7  2  0
  7  8  1  0
  8  9  2  0
  9 10  1  0
 10 11  2  0
 10 12  1  0
 12 13  1  0
 13 14  1  0
  2 15  1  0
 15 16  2  0
 16 17  1  0
 17 18  2  0
 18 19  1  0
 18 20  1  0
 20 21  2  0
 11  6  1  0
 21 15  1  0
 14  9  1  0
  4 22  1  0
  5 23  1  0
  5 24  1  0
  7 25  1  0
  8 26  1  0
 11 27  1  0
 13 28  1  0
 13 29  1  0
 16 30  1  0
 17 31  1  0
 20 32  1  0
 21 33  1  0
M  END
>  <docking_id>  (28) 
PKM2_r28_cid47201282

>  <target>  (28) 
PKM2

>  <compound_id>  (28) 
47201282

>  <admet_priority_rank>  (28) 
28

>  <priority_score>  (28) 
0.5824620030016116

>  <ensemble_calibrated_mean>  (28) 
0.1291666666666666

>  <admet_support_score>  (28) 
0.7205614046013574

>  <toxicity_burden>  (28) 
0.5175331098

>  <label>  (28) 
0

$$$$
PKM2_r29_cid47201702
     RDKit          3D

 27 28  0  0  0  0  0  0  0  0999 V2000
   -2.5792    2.4706    0.1088 C   0  0  0  0  0  0  0  0  0  0  0  0
   -2.4558    1.0823   -0.4119 C   0  0  0  0  0  0  0  0  0  0  0  0
   -3.2777    0.5686   -1.3164 N   0  0  0  0  0  0  0  0  0  0  0  0
   -2.9342   -0.7502   -1.4479 C   0  0  0  0  0  0  0  0  0  0  0  0
   -1.8574   -1.0312   -0.6518 C   0  0  0  0  0  0  0  0  0  0  0  0
   -1.2275   -2.2741   -0.4618 N   0  0  0  0  0  0  0  0  0  0  0  0
   -1.9643   -3.2576   -0.3607 O   0  0  0  0  0  0  0  0  0  0  0  0
    0.0045   -2.2763   -0.4806 O   0  0  0  0  0  0  0  0  0  0  0  0
   -1.5162    0.1366   -0.0293 N   0  0  0  0  0  0  0  0  0  0  0  0
   -0.3979    0.3029    1.2285 S   0  0  0  0  0  0  0  0  0  0  0  0
   -0.4417    1.6805    1.6725 O   0  0  0  0  0  0  0  0  0  0  0  0
   -0.7539   -0.7808    2.1255 O   0  0  0  0  0  0  0  0  0  0  0  0
    1.2446    0.0293    0.6279 C   0  0  0  0  0  0  0  0  0  0  0  0
    2.0670   -0.7999    1.4145 C   0  0  0  0  0  0  0  0  0  0  0  0
    3.3753   -1.0665    1.0190 C   0  0  0  0  0  0  0  0  0  0  0  0
    4.4663   -2.1918    2.0736 Br  0  0  0  0  0  0  0  0  0  0  0  0
    3.8838   -0.5069   -0.1473 C   0  0  0  0  0  0  0  0  0  0  0  0
    3.0775    0.3329   -0.9181 C   0  0  0  0  0  0  0  0  0  0  0  0
    1.7574    0.6123   -0.5343 C   0  0  0  0  0  0  0  0  0  0  0  0
    0.8159    1.8132   -1.6547 Br  0  0  0  0  0  0  0  0  0  0  0  0
   -3.3975    2.9882   -0.4038 H   0  0  0  0  0  0  0  0  0  0  0  0
   -2.8184    2.4690    1.1762 H   0  0  0  0  0  0  0  0  0  0  0  0
   -1.6717    3.0525   -0.0688 H   0  0  0  0  0  0  0  0  0  0  0  0
   -3.4879   -1.4180   -2.0976 H   0  0  0  0  0  0  0  0  0  0  0  0
    1.6855   -1.2478    2.3313 H   0  0  0  0  0  0  0  0  0  0  0  0
    4.9046   -0.7106   -0.4626 H   0  0  0  0  0  0  0  0  0  0  0  0
    3.4986    0.7727   -1.8211 H   0  0  0  0  0  0  0  0  0  0  0  0
  1  2  1  0
  2  3  2  0
  3  4  1  0
  4  5  2  0
  5  6  1  0
  6  7  2  0
  6  8  1  0
  5  9  1  0
  9 10  1  0
 10 11  2  0
 10 12  2  0
 10 13  1  0
 13 14  2  0
 14 15  1  0
 15 16  1  0
 15 17  2  0
 17 18  1  0
 18 19  2  0
 19 20  1  0
  9  2  1  0
 19 13  1  0
  1 21  1  0
  1 22  1  0
  1 23  1  0
  4 24  1  0
 14 25  1  0
 17 26  1  0
 18 27  1  0
M  CHG  2   6   1   8  -1
M  END
>  <docking_id>  (29) 
PKM2_r29_cid47201702

>  <target>  (29) 
PKM2

>  <compound_id>  (29) 
47201702

>  <admet_priority_rank>  (29) 
29

>  <priority_score>  (29) 
0.5818941109648273

>  <ensemble_calibrated_mean>  (29) 
0.1291666666666666

>  <admet_support_score>  (29) 
0.669672671940384

>  <toxicity_burden>  (29) 
0.4664834902000001

>  <label>  (29) 
0

$$$$
PKM2_r30_cid24834498
     RDKit          3D

 42 43  0  0  0  0  0  0  0  0999 V2000
   -6.2865   -0.8914   -0.5993 C   0  0  0  0  0  0  0  0  0  0  0  0
   -5.4589    0.1526   -1.1228 O   0  0  0  0  0  0  0  0  0  0  0  0
   -4.2279    0.2303   -0.5708 C   0  0  0  0  0  0  0  0  0  0  0  0
   -3.7691   -0.5040    0.2996 O   0  0  0  0  0  0  0  0  0  0  0  0
   -3.4184    1.3303   -1.1976 C   0  0  0  0  0  0  0  0  0  0  0  0
   -2.3975    1.8710   -0.2008 C   0  0  0  0  0  0  0  0  0  0  0  0
   -1.4449    0.8063    0.3182 N   0  0  0  0  0  0  0  0  0  0  0  0
   -0.7125    1.2865    1.5728 C   0  0  0  0  0  0  0  0  0  0  0  0
    0.1823    0.1657    2.1240 C   0  0  0  0  0  0  0  0  0  0  0  0
    1.1703   -0.2999    1.1032 N   0  0  0  0  0  0  0  0  0  0  0  0
    2.5049    0.7535    0.8889 S   0  0  0  0  0  0  0  0  0  0  0  0
    2.0626    1.7438   -0.0700 O   0  0  0  0  0  0  0  0  0  0  0  0
    2.9709    1.1370    2.1999 O   0  0  0  0  0  0  0  0  0  0  0  0
    3.7200   -0.2874    0.1410 C   0  0  0  0  0  0  0  0  0  0  0  0
    4.2134   -1.3796    0.8622 C   0  0  0  0  0  0  0  0  0  0  0  0
    5.1664   -2.2132    0.2777 C   0  0  0  0  0  0  0  0  0  0  0  0
    5.6215   -1.9529   -1.0168 C   0  0  0  0  0  0  0  0  0  0  0  0
    5.1271   -0.8544   -1.7216 C   0  0  0  0  0  0  0  0  0  0  0  0
    5.7474   -0.5077   -3.4727 Br  0  0  0  0  0  0  0  0  0  0  0  0
    4.1772   -0.0111   -1.1496 C   0  0  0  0  0  0  0  0  0  0  0  0
    0.4894   -0.7709   -0.1430 C   0  0  0  0  0  0  0  0  0  0  0  0
   -0.4772    0.2782   -0.7357 C   0  0  0  0  0  0  0  0  0  0  0  0
   -5.8329   -1.8685   -0.7921 H   0  0  0  0  0  0  0  0  0  0  0  0
   -6.4517   -0.7452    0.4726 H   0  0  0  0  0  0  0  0  0  0  0  0
   -7.2518   -0.8474   -1.1106 H   0  0  0  0  0  0  0  0  0  0  0  0
   -4.0888    2.1493   -1.4818 H   0  0  0  0  0  0  0  0  0  0  0  0
   -2.9442    0.9474   -2.1055 H   0  0  0  0  0  0  0  0  0  0  0  0
   -2.9185    2.2762    0.6745 H   0  0  0  0  0  0  0  0  0  0  0  0
   -1.7878    2.6646   -0.6459 H   0  0  0  0  0  0  0  0  0  0  0  0
   -2.0404    0.0075    0.6201 H   0  0  0  0  0  0  0  0  0  0  0  0
   -0.1476    2.1817    1.2968 H   0  0  0  0  0  0  0  0  0  0  0  0
   -1.4792    1.5503    2.3085 H   0  0  0  0  0  0  0  0  0  0  0  0
   -0.4336   -0.6944    2.4154 H   0  0  0  0  0  0  0  0  0  0  0  0
    0.6914    0.4938    3.0355 H   0  0  0  0  0  0  0  0  0  0  0  0
    3.8698   -1.5797    1.8755 H   0  0  0  0  0  0  0  0  0  0  0  0
    5.5634   -3.0623    0.8308 H   0  0  0  0  0  0  0  0  0  0  0  0
    6.3686   -2.6066   -1.4628 H   0  0  0  0  0  0  0  0  0  0  0  0
    3.8103    0.8510   -1.7008 H   0  0  0  0  0  0  0  0  0  0  0  0
    1.2249   -1.0720   -0.8952 H   0  0  0  0  0  0  0  0  0  0  0  0
   -0.0723   -1.6786    0.1118 H   0  0  0  0  0  0  0  0  0  0  0  0
    0.0384    1.1411   -1.1620 H   0  0  0  0  0  0  0  0  0  0  0  0
   -1.0789   -0.1908   -1.5198 H   0  0  0  0  0  0  0  0  0  0  0  0
  1  2  1  0
  2  3  1  0
  3  4  2  0
  3  5  1  0
  5  6  1  0
  6  7  1  0
  7  8  1  0
  8  9  1  0
  9 10  1  0
 10 11  1  0
 11 12  2  0
 11 13  2  0
 11 14  1  0
 14 15  2  0
 15 16  1  0
 16 17  2  0
 17 18  1  0
 18 19  1  0
 18 20  2  0
 10 21  1  0
 21 22  1  0
 22  7  1  0
 20 14  1  0
  1 23  1  0
  1 24  1  0
  1 25  1  0
  5 26  1  0
  5 27  1  0
  6 28  1  0
  6 29  1  0
  7 30  1  0
  8 31  1  0
  8 32  1  0
  9 33  1  0
  9 34  1  0
 15 35  1  0
 16 36  1  0
 17 37  1  0
 20 38  1  0
 21 39  1  0
 21 40  1  0
 22 41  1  0
 22 42  1  0
M  CHG  1   7   1
M  END
>  <docking_id>  (30) 
PKM2_r30_cid24834498

>  <target>  (30) 
PKM2

>  <compound_id>  (30) 
24834498

>  <admet_priority_rank>  (30) 
30

>  <priority_score>  (30) 
0.5741866295148227

>  <ensemble_calibrated_mean>  (30) 
0.1180555555555555

>  <admet_support_score>  (30) 
0.6072500149965002

>  <toxicity_burden>  (30) 
0.318869552498

>  <label>  (30) 
0

$$$$
