MAPK1_r01_cid861731
     RDKit          3D

 45 48  0  0  0  0  0  0  0  0999 V2000
   -4.2879    3.3985   -2.0213 C   0  0  0  0  0  0  0  0  0  0  0  0
   -4.5994    2.1334   -1.4551 O   0  0  0  0  0  0  0  0  0  0  0  0
   -3.5562    1.2884   -1.1693 C   0  0  0  0  0  0  0  0  0  0  0  0
   -2.2122    1.5818   -1.4152 C   0  0  0  0  0  0  0  0  0  0  0  0
   -1.2186    0.6549   -1.0925 C   0  0  0  0  0  0  0  0  0  0  0  0
   -1.5575   -0.5787   -0.5263 C   0  0  0  0  0  0  0  0  0  0  0  0
   -0.4556   -1.5423   -0.1972 C   0  0  0  0  0  0  0  0  0  0  0  0
    0.7054   -1.0302    0.0972 N   0  0  0  0  0  0  0  0  0  0  0  0
    1.7425   -1.8877    0.3409 N   0  0  0  0  0  0  0  0  0  0  0  0
    1.8257   -3.2366    0.1059 C   0  0  0  0  0  0  0  0  0  0  0  0
    2.9706   -3.7215    0.5143 N   0  0  0  0  0  0  0  0  0  0  0  0
    3.6937   -2.6664    1.0218 N   0  0  0  0  0  0  0  0  0  0  0  0
    2.9829   -1.5591    0.8671 C   0  0  0  0  0  0  0  0  0  0  0  0
    3.4082   -0.2126    1.2372 C   0  0  0  0  0  0  0  0  0  0  0  0
    3.8787    0.0170    2.5390 C   0  0  0  0  0  0  0  0  0  0  0  0
    4.2760    1.2956    2.9397 C   0  0  0  0  0  0  0  0  0  0  0  0
    4.2116    2.3603    2.0425 C   0  0  0  0  0  0  0  0  0  0  0  0
    3.7686    2.1446    0.7385 C   0  0  0  0  0  0  0  0  0  0  0  0
    3.3948    0.8603    0.3323 C   0  0  0  0  0  0  0  0  0  0  0  0
    2.9854    0.6967   -0.9682 O   0  0  0  0  0  0  0  0  0  0  0  0
    4.1058    0.3757   -1.7956 C   0  0  0  0  0  0  0  0  0  0  0  0
    0.5506   -4.0828   -0.6766 S   0  0  0  0  0  0  0  0  0  0  0  0
   -0.8125   -3.0227   -0.1629 C   0  0  0  0  0  0  0  0  0  0  0  0
   -2.9010   -0.8739   -0.2635 C   0  0  0  0  0  0  0  0  0  0  0  0
   -3.9029    0.0514   -0.5863 C   0  0  0  0  0  0  0  0  0  0  0  0
   -5.2439   -0.1524   -0.3695 O   0  0  0  0  0  0  0  0  0  0  0  0
   -5.6496   -1.3803    0.2165 C   0  0  0  0  0  0  0  0  0  0  0  0
   -5.2281    3.9373   -2.1736 H   0  0  0  0  0  0  0  0  0  0  0  0
   -3.6700    3.9945   -1.3417 H   0  0  0  0  0  0  0  0  0  0  0  0
   -3.8075    3.2860   -2.9988 H   0  0  0  0  0  0  0  0  0  0  0  0
   -1.9007    2.5234   -1.8553 H   0  0  0  0  0  0  0  0  0  0  0  0
   -0.1767    0.9061   -1.2887 H   0  0  0  0  0  0  0  0  0  0  0  0
    3.9312   -0.8044    3.2517 H   0  0  0  0  0  0  0  0  0  0  0  0
    4.6312    1.4590    3.9542 H   0  0  0  0  0  0  0  0  0  0  0  0
    4.5114    3.3565    2.3573 H   0  0  0  0  0  0  0  0  0  0  0  0
    3.7217    2.9720    0.0363 H   0  0  0  0  0  0  0  0  0  0  0  0
    4.5948   -0.5489   -1.4705 H   0  0  0  0  0  0  0  0  0  0  0  0
    3.7349    0.2218   -2.8133 H   0  0  0  0  0  0  0  0  0  0  0  0
    4.8270    1.2000   -1.8188 H   0  0  0  0  0  0  0  0  0  0  0  0
   -1.6559   -3.2354   -0.8252 H   0  0  0  0  0  0  0  0  0  0  0  0
   -1.1001   -3.2800    0.8621 H   0  0  0  0  0  0  0  0  0  0  0  0
   -3.1610   -1.8125    0.2099 H   0  0  0  0  0  0  0  0  0  0  0  0
   -6.7403   -1.3654    0.3042 H   0  0  0  0  0  0  0  0  0  0  0  0
   -5.2365   -1.4918    1.2243 H   0  0  0  0  0  0  0  0  0  0  0  0
   -5.3788   -2.2298   -0.4191 H   0  0  0  0  0  0  0  0  0  0  0  0
  1  2  1  0
  2  3  1  0
  3  4  2  0
  4  5  1  0
  5  6  2  0
  6  7  1  0
  7  8  2  0
  8  9  1  0
  9 10  1  0
 10 11  2  0
 11 12  1  0
 12 13  2  0
 13 14  1  0
 14 15  2  0
 15 16  1  0
 16 17  2  0
 17 18  1  0
 18 19  2  0
 19 20  1  0
 20 21  1  0
 10 22  1  0
 22 23  1  0
  6 24  1  0
 24 25  2  0
 25 26  1  0
 26 27  1  0
 25  3  1  0
 23  7  1  0
 13  9  1  0
 19 14  1  0
  1 28  1  0
  1 29  1  0
  1 30  1  0
  4 31  1  0
  5 32  1  0
 15 33  1  0
 16 34  1  0
 17 35  1  0
 18 36  1  0
 21 37  1  0
 21 38  1  0
 21 39  1  0
 23 40  1  0
 23 41  1  0
 24 42  1  0
 27 43  1  0
 27 44  1  0
 27 45  1  0
M  END
>  <docking_id>  (1) 
MAPK1_r01_cid861731

>  <target>  (1) 
MAPK1

>  <compound_id>  (1) 
861731

>  <admet_priority_rank>  (1) 
1

>  <priority_score>  (1) 
0.9131231336459392

>  <ensemble_calibrated_mean>  (1) 
0.0651282057739221

>  <admet_support_score>  (1) 
0.6404463818351751

>  <toxicity_burden>  (1) 
0.520956375

>  <label>  (1) 
1

$$$$
MAPK1_r02_cid4247709
     RDKit          3D

 42 44  0  0  0  0  0  0  0  0999 V2000
    2.0686   -1.4125   -0.5375 O   0  0  0  0  0  0  0  0  0  0  0  0
    2.1777   -0.2097   -0.3387 C   0  0  0  0  0  0  0  0  0  0  0  0
    3.3465    0.5255   -0.2704 N   0  0  0  0  0  0  0  0  0  0  0  0
    4.6613    0.0560   -0.4788 C   0  0  0  0  0  0  0  0  0  0  0  0
    4.9709   -1.2501   -0.8774 C   0  0  0  0  0  0  0  0  0  0  0  0
    6.3018   -1.6407   -1.0696 C   0  0  0  0  0  0  0  0  0  0  0  0
    7.3241   -0.7241   -0.8656 C   0  0  0  0  0  0  0  0  0  0  0  0
    8.5963   -1.1000   -1.0519 F   0  0  0  0  0  0  0  0  0  0  0  0
    7.0263    0.5730   -0.4736 C   0  0  0  0  0  0  0  0  0  0  0  0
    8.0098    1.4621   -0.2780 F   0  0  0  0  0  0  0  0  0  0  0  0
    5.7047    0.9692   -0.2799 C   0  0  0  0  0  0  0  0  0  0  0  0
    0.9312    0.5709   -0.1114 C   0  0  0  0  0  0  0  0  0  0  0  0
    0.7656    1.8577   -0.6445 C   0  0  0  0  0  0  0  0  0  0  0  0
   -0.4291    2.5504   -0.4307 C   0  0  0  0  0  0  0  0  0  0  0  0
   -1.4553    1.9595    0.3037 C   0  0  0  0  0  0  0  0  0  0  0  0
   -2.5909    2.6473    0.4755 F   0  0  0  0  0  0  0  0  0  0  0  0
   -1.2977    0.6791    0.8189 C   0  0  0  0  0  0  0  0  0  0  0  0
   -2.6096   -0.0324    1.7530 S   0  0  0  0  0  0  0  0  0  0  0  0
   -2.9995    0.9278    2.7616 O   0  0  0  0  0  0  0  0  0  0  0  0
   -2.2222   -1.3781    2.1236 O   0  0  0  0  0  0  0  0  0  0  0  0
   -3.8652   -0.1797    0.6141 N   0  0  0  0  0  0  0  0  0  0  0  0
   -3.6436   -1.1699   -0.4903 C   0  0  0  0  0  0  0  0  0  0  0  0
   -4.5049   -2.4201   -0.2889 C   0  0  0  0  0  0  0  0  0  0  0  0
   -5.9114   -2.1364   -0.2973 O   0  0  0  0  0  0  0  0  0  0  0  0
   -6.2317   -0.8353    0.2169 C   0  0  0  0  0  0  0  0  0  0  0  0
   -5.2174   -0.3273    1.2450 C   0  0  0  0  0  0  0  0  0  0  0  0
   -0.1067   -0.0258    0.6160 C   0  0  0  0  0  0  0  0  0  0  0  0
    3.2667    1.4906    0.0251 H   0  0  0  0  0  0  0  0  0  0  0  0
    4.1977   -1.9932   -1.0506 H   0  0  0  0  0  0  0  0  0  0  0  0
    6.5392   -2.6546   -1.3773 H   0  0  0  0  0  0  0  0  0  0  0  0
    5.5168    1.9928    0.0276 H   0  0  0  0  0  0  0  0  0  0  0  0
    1.5405    2.3182   -1.2528 H   0  0  0  0  0  0  0  0  0  0  0  0
   -0.5746    3.5457   -0.8426 H   0  0  0  0  0  0  0  0  0  0  0  0
   -2.5900   -1.4526   -0.5706 H   0  0  0  0  0  0  0  0  0  0  0  0
   -3.9150   -0.6704   -1.4279 H   0  0  0  0  0  0  0  0  0  0  0  0
   -4.3139   -3.1419   -1.0892 H   0  0  0  0  0  0  0  0  0  0  0  0
   -4.2648   -2.9124    0.6604 H   0  0  0  0  0  0  0  0  0  0  0  0
   -7.2280   -0.8971    0.6659 H   0  0  0  0  0  0  0  0  0  0  0  0
   -6.2973   -0.1467   -0.6336 H   0  0  0  0  0  0  0  0  0  0  0  0
   -5.5376    0.6487    1.6238 H   0  0  0  0  0  0  0  0  0  0  0  0
   -5.1602   -1.0359    2.0797 H   0  0  0  0  0  0  0  0  0  0  0  0
    0.0209   -1.0303    1.0182 H   0  0  0  0  0  0  0  0  0  0  0  0
  1  2  2  0
  2  3  1  0
  3  4  1  0
  4  5  2  0
  5  6  1  0
  6  7  2  0
  7  8  1  0
  7  9  1  0
  9 10  1  0
  9 11  2  0
  2 12  1  0
 12 13  2  0
 13 14  1  0
 14 15  2  0
 15 16  1  0
 15 17  1  0
 17 18  1  0
 18 19  2  0
 18 20  2  0
 18 21  1  0
 21 22  1  0
 22 23  1  0
 23 24  1  0
 24 25  1  0
 25 26  1  0
 17 27  2  0
 11  4  1  0
 27 12  1  0
 26 21  1  0
  3 28  1  0
  5 29  1  0
  6 30  1  0
 11 31  1  0
 13 32  1  0
 14 33  1  0
 22 34  1  0
 22 35  1  0
 23 36  1  0
 23 37  1  0
 25 38  1  0
 25 39  1  0
 26 40  1  0
 26 41  1  0
 27 42  1  0
M  END
>  <docking_id>  (2) 
MAPK1_r02_cid4247709

>  <target>  (2) 
MAPK1

>  <compound_id>  (2) 
4247709

>  <admet_priority_rank>  (2) 
2

>  <priority_score>  (2) 
0.9010125839817252

>  <ensemble_calibrated_mean>  (2) 
0.0651282057739221

>  <admet_support_score>  (2) 
0.7643786375428796

>  <toxicity_burden>  (2) 
0.40988514136

>  <label>  (2) 
0

$$$$
MAPK1_r03_cid862804
     RDKit          3D

 47 48  0  0  0  0  0  0  0  0999 V2000
   -6.5710    0.3944    3.2547 C   0  0  0  0  0  0  0  0  0  0  0  0
   -6.4370    0.0029    1.8962 O   0  0  0  0  0  0  0  0  0  0  0  0
   -5.1901    0.0686    1.3283 C   0  0  0  0  0  0  0  0  0  0  0  0
   -4.0338    0.4680    2.0035 C   0  0  0  0  0  0  0  0  0  0  0  0
   -2.8026    0.5019    1.3399 C   0  0  0  0  0  0  0  0  0  0  0  0
   -2.7046    0.1375   -0.0085 C   0  0  0  0  0  0  0  0  0  0  0  0
   -1.4324    0.1616   -0.7263 C   0  0  0  0  0  0  0  0  0  0  0  0
   -1.1833   -0.1397   -1.9862 N   0  0  0  0  0  0  0  0  0  0  0  0
    0.1704    0.0625   -2.1083 C   0  0  0  0  0  0  0  0  0  0  0  0
    0.8390   -0.1495   -3.3475 C   0  0  0  0  0  0  0  0  0  0  0  0
    1.4627   -0.3075   -4.3147 N   0  0  0  0  0  0  0  0  0  0  0  0
    0.7118    0.4761   -0.9065 C   0  0  0  0  0  0  0  0  0  0  0  0
    1.9178    0.8192   -0.3830 N   0  0  0  0  0  0  0  0  0  0  0  0
    3.0453    1.1845   -1.2250 C   0  0  0  0  0  0  0  0  0  0  0  0
    3.8940   -0.0352   -1.5868 C   0  0  0  0  0  0  0  0  0  0  0  0
    4.4255   -0.8457   -0.4066 C   0  0  0  0  0  0  0  0  0  0  0  0
    5.5513   -0.1227    0.3153 N   0  0  0  0  0  0  0  0  0  0  0  0
    5.1207    0.4320    1.6466 C   0  0  0  0  0  0  0  0  0  0  0  0
    6.7723   -0.9955    0.4695 C   0  0  0  0  0  0  0  0  0  0  0  0
   -0.3229    0.5441   -0.0150 O   0  0  0  0  0  0  0  0  0  0  0  0
   -3.8696   -0.2626   -0.6830 C   0  0  0  0  0  0  0  0  0  0  0  0
   -5.1075   -0.3001   -0.0287 C   0  0  0  0  0  0  0  0  0  0  0  0
   -6.2858   -0.6815   -0.6206 O   0  0  0  0  0  0  0  0  0  0  0  0
   -6.2584   -1.0277   -1.9980 C   0  0  0  0  0  0  0  0  0  0  0  0
   -6.2920    1.4441    3.3929 H   0  0  0  0  0  0  0  0  0  0  0  0
   -7.6250    0.2916    3.5305 H   0  0  0  0  0  0  0  0  0  0  0  0
   -5.9899   -0.2599    3.9127 H   0  0  0  0  0  0  0  0  0  0  0  0
   -4.0572    0.7591    3.0486 H   0  0  0  0  0  0  0  0  0  0  0  0
   -1.9230    0.8185    1.8958 H   0  0  0  0  0  0  0  0  0  0  0  0
    1.8220    1.3890    0.4595 H   0  0  0  0  0  0  0  0  0  0  0  0
    2.7132    1.7030   -2.1320 H   0  0  0  0  0  0  0  0  0  0  0  0
    3.6662    1.9053   -0.6811 H   0  0  0  0  0  0  0  0  0  0  0  0
    3.2964   -0.7198   -2.1969 H   0  0  0  0  0  0  0  0  0  0  0  0
    4.7289    0.2871   -2.2211 H   0  0  0  0  0  0  0  0  0  0  0  0
    3.6504   -1.1021    0.3233 H   0  0  0  0  0  0  0  0  0  0  0  0
    4.8382   -1.7866   -0.7890 H   0  0  0  0  0  0  0  0  0  0  0  0
    5.8548    0.6719   -0.2616 H   0  0  0  0  0  0  0  0  0  0  0  0
    4.8484   -0.4007    2.3009 H   0  0  0  0  0  0  0  0  0  0  0  0
    4.2695    1.0960    1.4849 H   0  0  0  0  0  0  0  0  0  0  0  0
    5.9577    0.9985    2.0634 H   0  0  0  0  0  0  0  0  0  0  0  0
    6.5044   -1.8656    1.0749 H   0  0  0  0  0  0  0  0  0  0  0  0
    7.5530   -0.4037    0.9548 H   0  0  0  0  0  0  0  0  0  0  0  0
    7.1011   -1.2938   -0.5296 H   0  0  0  0  0  0  0  0  0  0  0  0
   -3.7867   -0.5446   -1.7291 H   0  0  0  0  0  0  0  0  0  0  0  0
   -7.2787   -1.2846   -2.2988 H   0  0  0  0  0  0  0  0  0  0  0  0
   -5.6296   -1.9072   -2.1707 H   0  0  0  0  0  0  0  0  0  0  0  0
   -5.9339   -0.1812   -2.6121 H   0  0  0  0  0  0  0  0  0  0  0  0
  1  2  1  0
  2  3  1  0
  3  4  2  0
  4  5  1  0
  5  6  2  0
  6  7  1  0
  7  8  2  0
  8  9  1  0
  9 10  1  0
 10 11  3  0
  9 12  2  0
 12 13  1  0
 13 14  1  0
 14 15  1  0
 15 16  1  0
 16 17  1  0
 17 18  1  0
 17 19  1  0
 12 20  1  0
  6 21  1  0
 21 22  2  0
 22 23  1  0
 23 24  1  0
 22  3  1  0
 20  7  1  0
  1 25  1  0
  1 26  1  0
  1 27  1  0
  4 28  1  0
  5 29  1  0
 13 30  1  0
 14 31  1  0
 14 32  1  0
 15 33  1  0
 15 34  1  0
 16 35  1  0
 16 36  1  0
 17 37  1  0
 18 38  1  0
 18 39  1  0
 18 40  1  0
 19 41  1  0
 19 42  1  0
 19 43  1  0
 21 44  1  0
 24 45  1  0
 24 46  1  0
 24 47  1  0
M  CHG  1  17   1
M  END
>  <docking_id>  (3) 
MAPK1_r03_cid862804

>  <target>  (3) 
MAPK1

>  <compound_id>  (3) 
862804

>  <admet_priority_rank>  (3) 
3

>  <priority_score>  (3) 
0.9103647279872814

>  <ensemble_calibrated_mean>  (3) 
0.0623809530266693

>  <admet_support_score>  (3) 
0.660479249352528

>  <toxicity_burden>  (3) 
0.5295540919999999

>  <label>  (3) 
0

$$$$
MAPK1_r04_cid849019
     RDKit          3D

 32 33  0  0  0  0  0  0  0  0999 V2000
    3.9442   -0.1455   -2.7712 C   0  0  0  0  0  0  0  0  0  0  0  0
    3.0588   -0.3872   -1.7949 C   0  0  0  0  0  0  0  0  0  0  0  0
    3.3357   -0.2228   -0.3296 C   0  0  0  0  0  0  0  0  0  0  0  0
    2.3688    1.1529    0.3500 S   0  0  0  0  0  0  0  0  0  0  0  0
    0.7983    0.4393    0.5175 C   0  0  0  0  0  0  0  0  0  0  0  0
    0.5291   -0.8422    0.3721 N   0  0  0  0  0  0  0  0  0  0  0  0
   -0.8113   -0.9331    0.5714 C   0  0  0  0  0  0  0  0  0  0  0  0
   -1.3729    0.2820    0.8426 C   0  0  0  0  0  0  0  0  0  0  0  0
   -2.7668    0.4420    1.0724 C   0  0  0  0  0  0  0  0  0  0  0  0
   -3.3312    1.5052    1.3015 O   0  0  0  0  0  0  0  0  0  0  0  0
   -3.4517   -0.7509    1.0053 N   0  0  0  0  0  0  0  0  0  0  0  0
   -2.9334   -2.0038    0.7331 C   0  0  0  0  0  0  0  0  0  0  0  0
   -3.6975   -2.9683    0.6996 O   0  0  0  0  0  0  0  0  0  0  0  0
   -1.5632   -2.0872    0.5109 N   0  0  0  0  0  0  0  0  0  0  0  0
   -0.9366   -3.3614    0.2173 C   0  0  0  0  0  0  0  0  0  0  0  0
   -0.3293    1.1723    0.8196 N   0  0  0  0  0  0  0  0  0  0  0  0
   -0.4264    2.5980    1.0708 C   0  0  0  0  0  0  0  0  0  0  0  0
   -0.7359    3.3876   -0.1893 C   0  0  0  0  0  0  0  0  0  0  0  0
    3.6758   -0.2985   -3.8121 H   0  0  0  0  0  0  0  0  0  0  0  0
    4.9470    0.2119   -2.5590 H   0  0  0  0  0  0  0  0  0  0  0  0
    2.0689   -0.7540   -2.0615 H   0  0  0  0  0  0  0  0  0  0  0  0
    4.3937    0.0074   -0.1628 H   0  0  0  0  0  0  0  0  0  0  0  0
    3.1280   -1.1544    0.2066 H   0  0  0  0  0  0  0  0  0  0  0  0
   -4.4472   -0.7096    1.1563 H   0  0  0  0  0  0  0  0  0  0  0  0
   -0.4593   -3.3066   -0.7662 H   0  0  0  0  0  0  0  0  0  0  0  0
   -1.6645   -4.1770    0.2090 H   0  0  0  0  0  0  0  0  0  0  0  0
   -0.1811   -3.5727    0.9806 H   0  0  0  0  0  0  0  0  0  0  0  0
   -1.2026    2.7574    1.8261 H   0  0  0  0  0  0  0  0  0  0  0  0
    0.5101    2.9408    1.5211 H   0  0  0  0  0  0  0  0  0  0  0  0
   -0.8058    4.4553    0.0401 H   0  0  0  0  0  0  0  0  0  0  0  0
   -1.6862    3.0716   -0.6322 H   0  0  0  0  0  0  0  0  0  0  0  0
    0.0446    3.2516   -0.9450 H   0  0  0  0  0  0  0  0  0  0  0  0
  1  2  2  0
  2  3  1  0
  3  4  1  0
  4  5  1  0
  5  6  2  0
  6  7  1  0
  7  8  2  0
  8  9  1  0
  9 10  2  0
  9 11  1  0
 11 12  1  0
 12 13  2  0
 12 14  1  0
 14 15  1  0
  8 16  1  0
 16 17  1  0
 17 18  1  0
 16  5  1  0
 14  7  1  0
  1 19  1  0
  1 20  1  0
  2 21  1  0
  3 22  1  0
  3 23  1  0
 11 24  1  0
 15 25  1  0
 15 26  1  0
 15 27  1  0
 17 28  1  0
 17 29  1  0
 18 30  1  0
 18 31  1  0
 18 32  1  0
M  END
>  <docking_id>  (4) 
MAPK1_r04_cid849019

>  <target>  (4) 
MAPK1

>  <compound_id>  (4) 
849019

>  <admet_priority_rank>  (4) 
4

>  <priority_score>  (4) 
0.901911776324042

>  <ensemble_calibrated_mean>  (4) 
0.0635340263162994

>  <admet_support_score>  (4) 
0.7443924181987602

>  <toxicity_burden>  (4) 
0.3912249044799999

>  <label>  (4) 
0

$$$$
MAPK1_r05_cid4238114
     RDKit          3D

 36 38  0  0  0  0  0  0  0  0999 V2000
    4.1328    3.6161    2.6372 N   0  0  0  0  0  0  0  0  0  0  0  0
    4.2306    2.6593    1.9875 C   0  0  0  0  0  0  0  0  0  0  0  0
    4.3578    1.4753    1.1891 C   0  0  0  0  0  0  0  0  0  0  0  0
    5.6110    0.8883    1.0035 C   0  0  0  0  0  0  0  0  0  0  0  0
    5.7284   -0.2624    0.2285 C   0  0  0  0  0  0  0  0  0  0  0  0
    4.5927   -0.8271   -0.3605 C   0  0  0  0  0  0  0  0  0  0  0  0
    3.3130   -0.2616   -0.1936 C   0  0  0  0  0  0  0  0  0  0  0  0
    2.1154   -0.8629   -0.8173 C   0  0  0  0  0  0  0  0  0  0  0  0
    2.2817   -1.9729   -1.5608 N   0  0  0  0  0  0  0  0  0  0  0  0
    1.1730   -2.4840   -2.1199 C   0  0  0  0  0  0  0  0  0  0  0  0
   -0.0779   -1.9427   -1.9518 C   0  0  0  0  0  0  0  0  0  0  0  0
   -0.1553   -0.8178   -1.1600 C   0  0  0  0  0  0  0  0  0  0  0  0
   -1.3633   -0.1602   -0.9252 N   0  0  0  0  0  0  0  0  0  0  0  0
   -2.3863   -0.9873   -0.2969 C   0  0  0  0  0  0  0  0  0  0  0  0
   -3.5297   -0.1090    0.1538 C   0  0  0  0  0  0  0  0  0  0  0  0
   -4.3716    0.4983   -0.7903 C   0  0  0  0  0  0  0  0  0  0  0  0
   -5.4255    1.3153   -0.3792 C   0  0  0  0  0  0  0  0  0  0  0  0
   -5.6469    1.5371    0.9785 C   0  0  0  0  0  0  0  0  0  0  0  0
   -4.8129    0.9459    1.9259 C   0  0  0  0  0  0  0  0  0  0  0  0
   -3.7575    0.1285    1.5170 C   0  0  0  0  0  0  0  0  0  0  0  0
    0.9277   -0.2645   -0.5972 N   0  0  0  0  0  0  0  0  0  0  0  0
    3.2242    0.9037    0.5949 C   0  0  0  0  0  0  0  0  0  0  0  0
    6.4994    1.3218    1.4586 H   0  0  0  0  0  0  0  0  0  0  0  0
    6.7017   -0.7241    0.0791 H   0  0  0  0  0  0  0  0  0  0  0  0
    4.7132   -1.7278   -0.9625 H   0  0  0  0  0  0  0  0  0  0  0  0
    1.3244   -3.3678   -2.7324 H   0  0  0  0  0  0  0  0  0  0  0  0
   -0.9439   -2.3689   -2.4376 H   0  0  0  0  0  0  0  0  0  0  0  0
   -1.1268    0.6322   -0.3282 H   0  0  0  0  0  0  0  0  0  0  0  0
   -2.7771   -1.7346   -0.9986 H   0  0  0  0  0  0  0  0  0  0  0  0
   -1.9747   -1.5299    0.5643 H   0  0  0  0  0  0  0  0  0  0  0  0
   -4.1981    0.3430   -1.8534 H   0  0  0  0  0  0  0  0  0  0  0  0
   -6.0697    1.7834   -1.1189 H   0  0  0  0  0  0  0  0  0  0  0  0
   -6.4660    2.1760    1.2983 H   0  0  0  0  0  0  0  0  0  0  0  0
   -4.9826    1.1252    2.9846 H   0  0  0  0  0  0  0  0  0  0  0  0
   -3.1134   -0.3186    2.2710 H   0  0  0  0  0  0  0  0  0  0  0  0
    2.2522    1.3745    0.7471 H   0  0  0  0  0  0  0  0  0  0  0  0
  1  2  3  0
  2  3  1  0
  3  4  2  0
  4  5  1  0
  5  6  2  0
  6  7  1  0
  7  8  1  0
  8  9  2  0
  9 10  1  0
 10 11  2  0
 11 12  1  0
 12 13  1  0
 13 14  1  0
 14 15  1  0
 15 16  2  0
 16 17  1  0
 17 18  2  0
 18 19  1  0
 19 20  2  0
 12 21  2  0
  7 22  2  0
 22  3  1  0
 21  8  1  0
 20 15  1  0
  4 23  1  0
  5 24  1  0
  6 25  1  0
 10 26  1  0
 11 27  1  0
 13 28  1  0
 14 29  1  0
 14 30  1  0
 16 31  1  0
 17 32  1  0
 18 33  1  0
 19 34  1  0
 20 35  1  0
 22 36  1  0
M  END
>  <docking_id>  (5) 
MAPK1_r05_cid4238114

>  <target>  (5) 
MAPK1

>  <compound_id>  (5) 
4238114

>  <admet_priority_rank>  (5) 
5

>  <priority_score>  (5) 
0.913777930117805

>  <ensemble_calibrated_mean>  (5) 
0.0651282057739221

>  <admet_support_score>  (5) 
0.5994035238243891

>  <toxicity_burden>  (5) 
0.6812612978

>  <label>  (5) 
0

$$$$
MAPK1_r06_cid4239535
     RDKit          3D

 35 37  0  0  0  0  0  0  0  0999 V2000
    4.5319    1.9873   -1.0102 C   0  0  0  0  0  0  0  0  0  0  0  0
    3.2474    1.4544   -0.5845 N   0  0  0  0  0  0  0  0  0  0  0  0
    3.1311    0.0471   -0.6790 C   0  0  0  0  0  0  0  0  0  0  0  0
    4.1928   -0.6642   -1.0970 N   0  0  0  0  0  0  0  0  0  0  0  0
    4.0340   -1.9891   -1.1762 C   0  0  0  0  0  0  0  0  0  0  0  0
    2.9252   -2.6754   -0.8815 N   0  0  0  0  0  0  0  0  0  0  0  0
    1.8819   -1.9627   -0.4476 C   0  0  0  0  0  0  0  0  0  0  0  0
    0.7121   -2.6318   -0.1160 C   0  0  0  0  0  0  0  0  0  0  0  0
   -0.4183   -1.9562    0.3574 C   0  0  0  0  0  0  0  0  0  0  0  0
   -0.4048   -0.5685    0.5181 C   0  0  0  0  0  0  0  0  0  0  0  0
   -1.5789    0.1545    1.0400 C   0  0  0  0  0  0  0  0  0  0  0  0
   -1.4696    0.8413    2.2651 C   0  0  0  0  0  0  0  0  0  0  0  0
   -2.5523    1.5361    2.8031 C   0  0  0  0  0  0  0  0  0  0  0  0
   -3.7649    1.5566    2.1242 C   0  0  0  0  0  0  0  0  0  0  0  0
   -3.8981    0.8850    0.9069 C   0  0  0  0  0  0  0  0  0  0  0  0
   -2.8164    0.1846    0.3562 C   0  0  0  0  0  0  0  0  0  0  0  0
   -2.8645   -0.4868   -0.8410 O   0  0  0  0  0  0  0  0  0  0  0  0
   -4.0863   -0.4611   -1.5656 C   0  0  0  0  0  0  0  0  0  0  0  0
    0.7740    0.1127    0.1832 C   0  0  0  0  0  0  0  0  0  0  0  0
    1.9186   -0.5691   -0.3098 C   0  0  0  0  0  0  0  0  0  0  0  0
    4.7302    1.7688   -2.0653 H   0  0  0  0  0  0  0  0  0  0  0  0
    4.5189    3.0760   -0.8955 H   0  0  0  0  0  0  0  0  0  0  0  0
    5.3509    1.6045   -0.3917 H   0  0  0  0  0  0  0  0  0  0  0  0
    2.4814    1.8712   -1.1072 H   0  0  0  0  0  0  0  0  0  0  0  0
    4.8886   -2.5640   -1.5156 H   0  0  0  0  0  0  0  0  0  0  0  0
    0.6750   -3.7133   -0.2256 H   0  0  0  0  0  0  0  0  0  0  0  0
   -1.3119   -2.5260    0.6042 H   0  0  0  0  0  0  0  0  0  0  0  0
   -0.5294    0.8268    2.8141 H   0  0  0  0  0  0  0  0  0  0  0  0
   -2.4473    2.0564    3.7516 H   0  0  0  0  0  0  0  0  0  0  0  0
   -4.6113    2.0964    2.5414 H   0  0  0  0  0  0  0  0  0  0  0  0
   -4.8622    0.9300    0.4115 H   0  0  0  0  0  0  0  0  0  0  0  0
   -4.8917   -0.9396   -0.9988 H   0  0  0  0  0  0  0  0  0  0  0  0
   -4.3545    0.5610   -1.8523 H   0  0  0  0  0  0  0  0  0  0  0  0
   -3.9411   -1.0362   -2.4852 H   0  0  0  0  0  0  0  0  0  0  0  0
    0.8095    1.1930    0.3113 H   0  0  0  0  0  0  0  0  0  0  0  0
  1  2  1  0
  2  3  1  0
  3  4  2  0
  4  5  1  0
  5  6  2  0
  6  7  1  0
  7  8  2  0
  8  9  1  0
  9 10  2  0
 10 11  1  0
 11 12  2  0
 12 13  1  0
 13 14  2  0
 14 15  1  0
 15 16  2  0
 16 17  1  0
 17 18  1  0
 10 19  1  0
 19 20  2  0
 20  3  1  0
 20  7  1  0
 16 11  1  0
  1 21  1  0
  1 22  1  0
  1 23  1  0
  2 24  1  0
  5 25  1  0
  8 26  1  0
  9 27  1  0
 12 28  1  0
 13 29  1  0
 14 30  1  0
 15 31  1  0
 18 32  1  0
 18 33  1  0
 18 34  1  0
 19 35  1  0
M  END
>  <docking_id>  (6) 
MAPK1_r06_cid4239535

>  <target>  (6) 
MAPK1

>  <compound_id>  (6) 
4239535

>  <admet_priority_rank>  (6) 
6

>  <priority_score>  (6) 
0.907327834270104

>  <ensemble_calibrated_mean>  (6) 
0.0623809530266693

>  <admet_support_score>  (6) 
0.6793624727165365

>  <toxicity_burden>  (6) 
0.6901465156

>  <label>  (6) 
0

$$$$
MAPK1_r07_cid863449
     RDKit          3D

 53 54  0  0  0  0  0  0  0  0999 V2000
   -2.2481    0.1611   -3.0622 C   0  0  0  0  0  0  0  0  0  0  0  0
   -2.7534    0.9036   -1.8376 C   0  0  0  0  0  0  0  0  0  0  0  0
   -3.4081   -0.0691   -0.8659 N   0  0  0  0  0  0  0  0  0  0  0  0
   -4.4478    0.6264    0.0030 C   0  0  0  0  0  0  0  0  0  0  0  0
   -5.7581    0.7578   -0.7531 C   0  0  0  0  0  0  0  0  0  0  0  0
   -2.3670   -0.7979   -0.0171 C   0  0  0  0  0  0  0  0  0  0  0  0
   -2.9049   -2.1509    0.4452 C   0  0  0  0  0  0  0  0  0  0  0  0
   -1.8582   -2.9471    1.2292 C   0  0  0  0  0  0  0  0  0  0  0  0
   -1.5406   -2.2719    2.4757 N   0  0  0  0  0  0  0  0  0  0  0  0
   -0.3986   -1.5609    2.6335 C   0  0  0  0  0  0  0  0  0  0  0  0
    0.3289   -1.2486    1.5180 O   0  0  0  0  0  0  0  0  0  0  0  0
    1.3825   -0.5035    1.9876 C   0  0  0  0  0  0  0  0  0  0  0  0
    2.3127   -0.0005    0.9850 C   0  0  0  0  0  0  0  0  0  0  0  0
    2.4861   -0.6398   -0.2482 C   0  0  0  0  0  0  0  0  0  0  0  0
    3.3730   -0.1260   -1.2036 C   0  0  0  0  0  0  0  0  0  0  0  0
    4.1078    1.0370   -0.9454 C   0  0  0  0  0  0  0  0  0  0  0  0
    4.9390    1.6297   -1.8559 O   0  0  0  0  0  0  0  0  0  0  0  0
    5.2788    0.8961   -3.0255 C   0  0  0  0  0  0  0  0  0  0  0  0
    3.9539    1.6675    0.3004 C   0  0  0  0  0  0  0  0  0  0  0  0
    4.5724    2.8262    0.6962 O   0  0  0  0  0  0  0  0  0  0  0  0
    5.9611    2.9088    0.3848 C   0  0  0  0  0  0  0  0  0  0  0  0
    3.0569    1.1541    1.2464 C   0  0  0  0  0  0  0  0  0  0  0  0
    1.3607   -0.2968    3.2891 N   0  0  0  0  0  0  0  0  0  0  0  0
    0.2495   -0.9886    3.7084 C   0  0  0  0  0  0  0  0  0  0  0  0
   -0.1567   -1.0243    5.0736 C   0  0  0  0  0  0  0  0  0  0  0  0
   -0.5454   -1.0755    6.1664 N   0  0  0  0  0  0  0  0  0  0  0  0
   -3.0638   -0.3684   -3.5655 H   0  0  0  0  0  0  0  0  0  0  0  0
   -1.8181    0.8707   -3.7763 H   0  0  0  0  0  0  0  0  0  0  0  0
   -1.4719   -0.5675   -2.8126 H   0  0  0  0  0  0  0  0  0  0  0  0
   -1.9503    1.4234   -1.3045 H   0  0  0  0  0  0  0  0  0  0  0  0
   -3.5053    1.6359   -2.1448 H   0  0  0  0  0  0  0  0  0  0  0  0
   -3.9024   -0.7750   -1.4271 H   0  0  0  0  0  0  0  0  0  0  0  0
   -4.6070    0.0185    0.8979 H   0  0  0  0  0  0  0  0  0  0  0  0
   -4.0406    1.5973    0.3043 H   0  0  0  0  0  0  0  0  0  0  0  0
   -6.5130    1.2237   -0.1115 H   0  0  0  0  0  0  0  0  0  0  0  0
   -6.1365   -0.2236   -1.0576 H   0  0  0  0  0  0  0  0  0  0  0  0
   -5.6573    1.3769   -1.6488 H   0  0  0  0  0  0  0  0  0  0  0  0
   -1.4786   -0.9481   -0.6374 H   0  0  0  0  0  0  0  0  0  0  0  0
   -2.1125   -0.1277    0.8099 H   0  0  0  0  0  0  0  0  0  0  0  0
   -3.7984   -2.0207    1.0659 H   0  0  0  0  0  0  0  0  0  0  0  0
   -3.2077   -2.7410   -0.4284 H   0  0  0  0  0  0  0  0  0  0  0  0
   -0.9697   -3.1351    0.6143 H   0  0  0  0  0  0  0  0  0  0  0  0
   -2.2770   -3.9315    1.4699 H   0  0  0  0  0  0  0  0  0  0  0  0
   -1.9738   -2.6841    3.3058 H   0  0  0  0  0  0  0  0  0  0  0  0
    1.9424   -1.5534   -0.4787 H   0  0  0  0  0  0  0  0  0  0  0  0
    3.4609   -0.6546   -2.1478 H   0  0  0  0  0  0  0  0  0  0  0  0
    6.0362    1.4680   -3.5702 H   0  0  0  0  0  0  0  0  0  0  0  0
    4.4103    0.7843   -3.6824 H   0  0  0  0  0  0  0  0  0  0  0  0
    5.7134   -0.0770   -2.7734 H   0  0  0  0  0  0  0  0  0  0  0  0
    6.4325    3.5407    1.1440 H   0  0  0  0  0  0  0  0  0  0  0  0
    6.4582    1.9326    0.4123 H   0  0  0  0  0  0  0  0  0  0  0  0
    6.1046    3.3977   -0.5830 H   0  0  0  0  0  0  0  0  0  0  0  0
    2.9489    1.6710    2.1997 H   0  0  0  0  0  0  0  0  0  0  0  0
  1  2  1  0
  2  3  1  0
  3  4  1  0
  4  5  1  0
  3  6  1  0
  6  7  1  0
  7  8  1  0
  8  9  1  0
  9 10  1  0
 10 11  1  0
 11 12  1  0
 12 13  1  0
 13 14  2  0
 14 15  1  0
 15 16  2  0
 16 17  1  0
 17 18  1  0
 16 19  1  0
 19 20  1  0
 20 21  1  0
 19 22  2  0
 12 23  2  0
 23 24  1  0
 24 25  1  0
 25 26  3  0
 24 10  2  0
 22 13  1  0
  1 27  1  0
  1 28  1  0
  1 29  1  0
  2 30  1  0
  2 31  1  0
  3 32  1  0
  4 33  1  0
  4 34  1  0
  5 35  1  0
  5 36  1  0
  5 37  1  0
  6 38  1  0
  6 39  1  0
  7 40  1  0
  7 41  1  0
  8 42  1  0
  8 43  1  0
  9 44  1  0
 14 45  1  0
 15 46  1  0
 18 47  1  0
 18 48  1  0
 18 49  1  0
 21 50  1  0
 21 51  1  0
 21 52  1  0
 22 53  1  0
M  CHG  1   3   1
M  END
>  <docking_id>  (7) 
MAPK1_r07_cid863449

>  <target>  (7) 
MAPK1

>  <compound_id>  (7) 
863449

>  <admet_priority_rank>  (7) 
7

>  <priority_score>  (7) 
0.9063023673688522

>  <ensemble_calibrated_mean>  (7) 
0.0623809530266693

>  <admet_support_score>  (7) 
0.6708480555400158

>  <toxicity_burden>  (7) 
0.5734429412

>  <label>  (7) 
0

$$$$
MAPK1_r08_cid849356
     RDKit          3D

 31 32  0  0  0  0  0  0  0  0999 V2000
    0.6466    3.2388    1.2698 C   0  0  0  0  0  0  0  0  0  0  0  0
   -0.0002    2.7223   -0.0088 C   0  0  0  0  0  0  0  0  0  0  0  0
   -0.4349    1.3263    0.1235 N   0  0  0  0  0  0  0  0  0  0  0  0
    0.3651    0.2319   -0.1695 C   0  0  0  0  0  0  0  0  0  0  0  0
    2.0014    0.5203   -0.7348 S   0  0  0  0  0  0  0  0  0  0  0  0
    2.2711   -1.0003   -1.6949 C   0  0  0  0  0  0  0  0  0  0  0  0
    3.5955   -0.9185   -2.4257 C   0  0  0  0  0  0  0  0  0  0  0  0
    4.7101   -0.8580   -1.6343 N   0  0  0  0  0  0  0  0  0  0  0  0
    3.6986   -0.9471   -3.6479 O   0  0  0  0  0  0  0  0  0  0  0  0
   -0.0058   -0.9992   -0.0379 N   0  0  0  0  0  0  0  0  0  0  0  0
   -1.2971   -1.2651    0.4230 C   0  0  0  0  0  0  0  0  0  0  0  0
   -1.7123   -2.5938    0.5418 C   0  0  0  0  0  0  0  0  0  0  0  0
   -2.9950   -2.9001    1.0048 C   0  0  0  0  0  0  0  0  0  0  0  0
   -3.8742   -1.8760    1.3547 C   0  0  0  0  0  0  0  0  0  0  0  0
   -3.4699   -0.5466    1.2405 C   0  0  0  0  0  0  0  0  0  0  0  0
   -2.1828   -0.2525    0.7738 C   0  0  0  0  0  0  0  0  0  0  0  0
   -1.7188    1.1375    0.6375 C   0  0  0  0  0  0  0  0  0  0  0  0
   -2.4659    2.0509    0.9822 O   0  0  0  0  0  0  0  0  0  0  0  0
    1.5287    2.6503    1.5397 H   0  0  0  0  0  0  0  0  0  0  0  0
   -0.0525    3.1922    2.1112 H   0  0  0  0  0  0  0  0  0  0  0  0
    0.9569    4.2805    1.1429 H   0  0  0  0  0  0  0  0  0  0  0  0
    0.6880    2.8348   -0.8512 H   0  0  0  0  0  0  0  0  0  0  0  0
   -0.8671    3.3506   -0.2460 H   0  0  0  0  0  0  0  0  0  0  0  0
    2.2894   -1.8778   -1.0406 H   0  0  0  0  0  0  0  0  0  0  0  0
    1.4736   -1.1222   -2.4348 H   0  0  0  0  0  0  0  0  0  0  0  0
    5.5831   -0.6915   -2.1189 H   0  0  0  0  0  0  0  0  0  0  0  0
    4.6289   -0.4955   -0.6925 H   0  0  0  0  0  0  0  0  0  0  0  0
   -1.0295   -3.3957    0.2719 H   0  0  0  0  0  0  0  0  0  0  0  0
   -3.3057   -3.9385    1.0924 H   0  0  0  0  0  0  0  0  0  0  0  0
   -4.8723   -2.1127    1.7157 H   0  0  0  0  0  0  0  0  0  0  0  0
   -4.1531    0.2549    1.5126 H   0  0  0  0  0  0  0  0  0  0  0  0
  1  2  1  0
  2  3  1  0
  3  4  1  0
  4  5  1  0
  5  6  1  0
  6  7  1  0
  7  8  1  0
  7  9  2  0
  4 10  2  0
 10 11  1  0
 11 12  2  0
 12 13  1  0
 13 14  2  0
 14 15  1  0
 15 16  2  0
 16 17  1  0
 17 18  2  0
 17  3  1  0
 16 11  1  0
  1 19  1  0
  1 20  1  0
  1 21  1  0
  2 22  1  0
  2 23  1  0
  6 24  1  0
  6 25  1  0
  8 26  1  0
  8 27  1  0
 12 28  1  0
 13 29  1  0
 14 30  1  0
 15 31  1  0
M  END
>  <docking_id>  (8) 
MAPK1_r08_cid849356

>  <target>  (8) 
MAPK1

>  <compound_id>  (8) 
849356

>  <admet_priority_rank>  (8) 
8

>  <priority_score>  (8) 
0.8960814160973241

>  <ensemble_calibrated_mean>  (8) 
0.0623809530266693

>  <admet_support_score>  (8) 
0.7721126375809594

>  <toxicity_burden>  (8) 
0.4383810832

>  <label>  (8) 
0

$$$$
