PKM2_r01_cid7966421
     RDKit          3D

 36 38  0  0  0  0  0  0  0  0999 V2000
    3.9025    1.3617    2.1082 C   0  0  0  0  0  0  0  0  0  0  0  0
    3.2590    0.7847    0.8842 C   0  0  0  0  0  0  0  0  0  0  0  0
    2.5808    1.6010   -0.0276 C   0  0  0  0  0  0  0  0  0  0  0  0
    2.0108    1.0485   -1.1784 C   0  0  0  0  0  0  0  0  0  0  0  0
    2.1189   -0.3217   -1.4281 C   0  0  0  0  0  0  0  0  0  0  0  0
    1.5022   -0.8526   -2.5949 N   0  0  0  0  0  0  0  0  0  0  0  0
    0.2874   -2.0147   -2.4527 S   0  0  0  0  0  0  0  0  0  0  0  0
   -0.3594   -2.0860   -3.7454 O   0  0  0  0  0  0  0  0  0  0  0  0
    0.8214   -3.1961   -1.8115 O   0  0  0  0  0  0  0  0  0  0  0  0
   -0.8624   -1.2493   -1.3282 C   0  0  0  0  0  0  0  0  0  0  0  0
   -0.8738   -1.6394    0.0306 C   0  0  0  0  0  0  0  0  0  0  0  0
   -1.7696   -1.0482    0.9270 C   0  0  0  0  0  0  0  0  0  0  0  0
   -2.6250   -0.0935    0.4193 C   0  0  0  0  0  0  0  0  0  0  0  0
   -2.6209    0.2752   -0.9125 C   0  0  0  0  0  0  0  0  0  0  0  0
   -1.7543   -0.2892   -1.8223 C   0  0  0  0  0  0  0  0  0  0  0  0
   -3.5639    1.2486   -1.2009 O   0  0  0  0  0  0  0  0  0  0  0  0
   -4.1672    1.4701    0.0475 C   0  0  0  0  0  0  0  0  0  0  0  0
   -5.0675    2.2812    0.2144 O   0  0  0  0  0  0  0  0  0  0  0  0
   -3.6026    0.6649    1.0157 N   0  0  0  0  0  0  0  0  0  0  0  0
   -3.9697    0.6155    2.4015 C   0  0  0  0  0  0  0  0  0  0  0  0
    2.8099   -1.1384   -0.5381 C   0  0  0  0  0  0  0  0  0  0  0  0
    3.3743   -0.5796    0.6046 C   0  0  0  0  0  0  0  0  0  0  0  0
    4.0410   -1.3768    1.4516 F   0  0  0  0  0  0  0  0  0  0  0  0
    4.9738    1.5049    1.9365 H   0  0  0  0  0  0  0  0  0  0  0  0
    3.4591    2.3285    2.3691 H   0  0  0  0  0  0  0  0  0  0  0  0
    3.7630    0.6983    2.9681 H   0  0  0  0  0  0  0  0  0  0  0  0
    2.4912    2.6706    0.1518 H   0  0  0  0  0  0  0  0  0  0  0  0
    1.4802    1.6999   -1.8680 H   0  0  0  0  0  0  0  0  0  0  0  0
    1.3539   -0.2332   -3.3901 H   0  0  0  0  0  0  0  0  0  0  0  0
   -0.1826   -2.4007    0.3900 H   0  0  0  0  0  0  0  0  0  0  0  0
   -1.7826   -1.3372    1.9716 H   0  0  0  0  0  0  0  0  0  0  0  0
   -1.7719    0.0003   -2.8673 H   0  0  0  0  0  0  0  0  0  0  0  0
   -4.7757    1.3247    2.6090 H   0  0  0  0  0  0  0  0  0  0  0  0
   -4.3112   -0.3938    2.6497 H   0  0  0  0  0  0  0  0  0  0  0  0
   -3.1017    0.8733    3.0155 H   0  0  0  0  0  0  0  0  0  0  0  0
    2.9327   -2.2016   -0.7193 H   0  0  0  0  0  0  0  0  0  0  0  0
  1  2  1  0
  2  3  2  0
  3  4  1  0
  4  5  2  0
  5  6  1  0
  6  7  1  0
  7  8  2  0
  7  9  2  0
  7 10  1  0
 10 11  2  0
 11 12  1  0
 12 13  2  0
 13 14  1  0
 14 15  2  0
 14 16  1  0
 16 17  1  0
 17 18  2  0
 17 19  1  0
 19 20  1  0
  5 21  1  0
 21 22  2  0
 22 23  1  0
 22  2  1  0
 15 10  1  0
 19 13  1  0
  1 24  1  0
  1 25  1  0
  1 26  1  0
  3 27  1  0
  4 28  1  0
  6 29  1  0
 11 30  1  0
 12 31  1  0
 15 32  1  0
 20 33  1  0
 20 34  1  0
 20 35  1  0
 21 36  1  0
M  END
>  <docking_id>  (1) 
PKM2_r01_cid7966421

>  <target>  (1) 
PKM2

>  <compound_id>  (1) 
7966421

>  <admet_priority_rank>  (1) 
1

>  <priority_score>  (1) 
0.9418679003378738

>  <ensemble_calibrated_mean>  (1) 
0.8336433887481689

>  <admet_support_score>  (1) 
0.7457482297413494

>  <toxicity_burden>  (1) 
0.344159769148

>  <label>  (1) 
1

$$$$
PKM2_r02_cid24787185
     RDKit          3D

 33 35  0  0  0  0  0  0  0  0999 V2000
    4.3624   -1.3412   -1.0490 C   0  0  0  0  0  0  0  0  0  0  0  0
    3.2210   -0.5005   -1.2660 N   0  0  0  0  0  0  0  0  0  0  0  0
    2.7980    0.0080   -2.4777 C   0  0  0  0  0  0  0  0  0  0  0  0
    3.3239   -0.1840   -3.5655 O   0  0  0  0  0  0  0  0  0  0  0  0
    1.6503    0.7991   -2.3146 O   0  0  0  0  0  0  0  0  0  0  0  0
    1.4248    0.7268   -0.9493 C   0  0  0  0  0  0  0  0  0  0  0  0
    0.3959    1.3476   -0.2765 C   0  0  0  0  0  0  0  0  0  0  0  0
    0.3302    1.1376    1.1069 C   0  0  0  0  0  0  0  0  0  0  0  0
   -0.9680    1.9161    2.0471 S   0  0  0  0  0  0  0  0  0  0  0  0
   -1.4617    3.0397    1.2818 O   0  0  0  0  0  0  0  0  0  0  0  0
   -0.4742    2.0876    3.3976 O   0  0  0  0  0  0  0  0  0  0  0  0
   -2.1499    0.7160    2.1302 N   0  0  0  0  0  0  0  0  0  0  0  0
   -2.6258    0.1106    0.9352 C   0  0  0  0  0  0  0  0  0  0  0  0
   -3.2904    0.8596   -0.0352 C   0  0  0  0  0  0  0  0  0  0  0  0
   -3.7129    0.2503   -1.2176 C   0  0  0  0  0  0  0  0  0  0  0  0
   -3.4728   -1.1070   -1.4278 C   0  0  0  0  0  0  0  0  0  0  0  0
   -2.8143   -1.8578   -0.4545 C   0  0  0  0  0  0  0  0  0  0  0  0
   -2.3916   -1.2500    0.7289 C   0  0  0  0  0  0  0  0  0  0  0  0
    1.2944    0.3540    1.7816 C   0  0  0  0  0  0  0  0  0  0  0  0
    2.3300   -0.2585    1.0685 C   0  0  0  0  0  0  0  0  0  0  0  0
    2.3597   -0.0520   -0.2947 C   0  0  0  0  0  0  0  0  0  0  0  0
    5.0599   -0.8373   -0.3734 H   0  0  0  0  0  0  0  0  0  0  0  0
    4.8706   -1.5482   -1.9949 H   0  0  0  0  0  0  0  0  0  0  0  0
    4.0368   -2.2868   -0.6056 H   0  0  0  0  0  0  0  0  0  0  0  0
   -0.3276    1.9613   -0.8028 H   0  0  0  0  0  0  0  0  0  0  0  0
   -2.0558    0.1333    2.9597 H   0  0  0  0  0  0  0  0  0  0  0  0
   -3.4924    1.9167    0.1204 H   0  0  0  0  0  0  0  0  0  0  0  0
   -4.2308    0.8358   -1.9735 H   0  0  0  0  0  0  0  0  0  0  0  0
   -3.8019   -1.5798   -2.3503 H   0  0  0  0  0  0  0  0  0  0  0  0
   -2.6297   -2.9164   -0.6199 H   0  0  0  0  0  0  0  0  0  0  0  0
   -1.8738   -1.8464    1.4742 H   0  0  0  0  0  0  0  0  0  0  0  0
    1.2410    0.2273    2.8618 H   0  0  0  0  0  0  0  0  0  0  0  0
    3.0747   -0.8615    1.5751 H   0  0  0  0  0  0  0  0  0  0  0  0
  1  2  1  0
  2  3  1  0
  3  4  2  0
  3  5  1  0
  5  6  1  0
  6  7  2  0
  7  8  1  0
  8  9  1  0
  9 10  2  0
  9 11  2  0
  9 12  1  0
 12 13  1  0
 13 14  2  0
 14 15  1  0
 15 16  2  0
 16 17  1  0
 17 18  2  0
  8 19  2  0
 19 20  1  0
 20 21  2  0
 21  2  1  0
 21  6  1  0
 18 13  1  0
  1 22  1  0
  1 23  1  0
  1 24  1  0
  7 25  1  0
 12 26  1  0
 14 27  1  0
 15 28  1  0
 16 29  1  0
 17 30  1  0
 18 31  1  0
 19 32  1  0
 20 33  1  0
M  END
>  <docking_id>  (2) 
PKM2_r02_cid24787185

>  <target>  (2) 
PKM2

>  <compound_id>  (2) 
24787185

>  <admet_priority_rank>  (2) 
2

>  <priority_score>  (2) 
0.8476600339510393

>  <ensemble_calibrated_mean>  (2) 
0.7681818127632141

>  <admet_support_score>  (2) 
0.732710208742533

>  <toxicity_burden>  (2) 
0.31457639164

>  <label>  (2) 
1

$$$$
PKM2_r03_cid49735565
     RDKit          3D

 42 44  0  0  0  0  0  0  0  0999 V2000
    0.8187   -1.4745    2.1716 C   0  0  0  0  0  0  0  0  0  0  0  0
   -0.1344   -0.9736    1.1224 C   0  0  0  0  0  0  0  0  0  0  0  0
   -1.2312   -0.1951    1.5395 C   0  0  0  0  0  0  0  0  0  0  0  0
   -2.1886    0.3138    0.6383 C   0  0  0  0  0  0  0  0  0  0  0  0
   -2.0526    0.0287   -0.7284 C   0  0  0  0  0  0  0  0  0  0  0  0
   -0.9639   -0.7507   -1.1525 C   0  0  0  0  0  0  0  0  0  0  0  0
   -0.0093   -1.2436   -0.2448 C   0  0  0  0  0  0  0  0  0  0  0  0
    1.3083   -2.2301   -0.9441 S   0  0  0  0  0  0  0  0  0  0  0  0
    2.0305   -2.9307    0.0924 O   0  0  0  0  0  0  0  0  0  0  0  0
    0.7408   -2.9589   -2.0604 O   0  0  0  0  0  0  0  0  0  0  0  0
    2.3121   -1.0532   -1.6327 N   0  0  0  0  0  0  0  0  0  0  0  0
    3.1749   -0.3261   -0.7705 C   0  0  0  0  0  0  0  0  0  0  0  0
    4.4060   -0.8632   -0.3898 C   0  0  0  0  0  0  0  0  0  0  0  0
    5.2295   -0.1513    0.4837 C   0  0  0  0  0  0  0  0  0  0  0  0
    4.8124    1.0851    0.9655 C   0  0  0  0  0  0  0  0  0  0  0  0
    5.6025    1.7664    1.8047 F   0  0  0  0  0  0  0  0  0  0  0  0
    3.5857    1.6241    0.5917 C   0  0  0  0  0  0  0  0  0  0  0  0
    2.7598    0.9136   -0.2799 C   0  0  0  0  0  0  0  0  0  0  0  0
   -3.0032    0.5224   -1.6633 N   0  0  0  0  0  0  0  0  0  0  0  0
   -2.8751    0.2152   -3.0805 C   0  0  0  0  0  0  0  0  0  0  0  0
   -4.0871    1.3031   -1.2654 C   0  0  0  0  0  0  0  0  0  0  0  0
   -4.9245    1.7510   -2.0447 O   0  0  0  0  0  0  0  0  0  0  0  0
   -4.2340    1.6184    0.2277 C   0  0  0  0  0  0  0  0  0  0  0  0
   -5.1826    2.3096    0.5906 O   0  0  0  0  0  0  0  0  0  0  0  0
   -3.2774    1.1031    1.1007 N   0  0  0  0  0  0  0  0  0  0  0  0
   -3.4267    1.3997    2.5175 C   0  0  0  0  0  0  0  0  0  0  0  0
    0.5894   -1.0513    3.1561 H   0  0  0  0  0  0  0  0  0  0  0  0
    0.7449   -2.5620    2.2659 H   0  0  0  0  0  0  0  0  0  0  0  0
    1.8458   -1.1788    1.9418 H   0  0  0  0  0  0  0  0  0  0  0  0
   -1.3230    0.0062    2.6047 H   0  0  0  0  0  0  0  0  0  0  0  0
   -0.8327   -0.9923   -2.2048 H   0  0  0  0  0  0  0  0  0  0  0  0
    2.7093   -1.3945   -2.5085 H   0  0  0  0  0  0  0  0  0  0  0  0
    4.7230   -1.8384   -0.7501 H   0  0  0  0  0  0  0  0  0  0  0  0
    6.1874   -0.5552    0.7963 H   0  0  0  0  0  0  0  0  0  0  0  0
    3.2832    2.5914    0.9803 H   0  0  0  0  0  0  0  0  0  0  0  0
    1.8038    1.3355   -0.5772 H   0  0  0  0  0  0  0  0  0  0  0  0
   -3.6819    0.6554   -3.6733 H   0  0  0  0  0  0  0  0  0  0  0  0
   -2.9130   -0.8695   -3.2230 H   0  0  0  0  0  0  0  0  0  0  0  0
   -1.9293    0.6187   -3.4562 H   0  0  0  0  0  0  0  0  0  0  0  0
   -4.3082    2.0144    2.7208 H   0  0  0  0  0  0  0  0  0  0  0  0
   -2.5495    1.9525    2.8684 H   0  0  0  0  0  0  0  0  0  0  0  0
   -3.5396    0.4646    3.0754 H   0  0  0  0  0  0  0  0  0  0  0  0
  1  2  1  0
  2  3  2  0
  3  4  1  0
  4  5  2  0
  5  6  1  0
  6  7  2  0
  7  8  1  0
  8  9  2  0
  8 10  2  0
  8 11  1  0
 11 12  1  0
 12 13  2  0
 13 14  1  0
 14 15  2  0
 15 16  1  0
 15 17  1  0
 17 18  2  0
  5 19  1  0
 19 20  1  0
 19 21  1  0
 21 22  2  0
 21 23  1  0
 23 24  2  0
 23 25  1  0
 25 26  1  0
  7  2  1  0
 18 12  1  0
 25  4  1  0
  1 27  1  0
  1 28  1  0
  1 29  1  0
  3 30  1  0
  6 31  1  0
 11 32  1  0
 13 33  1  0
 14 34  1  0
 17 35  1  0
 18 36  1  0
 20 37  1  0
 20 38  1  0
 20 39  1  0
 26 40  1  0
 26 41  1  0
 26 42  1  0
M  END
>  <docking_id>  (3) 
PKM2_r03_cid49735565

>  <target>  (3) 
PKM2

>  <compound_id>  (3) 
49735565

>  <admet_priority_rank>  (3) 
3

>  <priority_score>  (3) 
0.8467099850219416

>  <ensemble_calibrated_mean>  (3) 
0.7681818127632141

>  <admet_support_score>  (3) 
0.7020251650392316

>  <toxicity_burden>  (3) 
0.37104948806

>  <label>  (3) 
1

$$$$
PKM2_r04_cid4245024
     RDKit          3D

 43 45  0  0  0  0  0  0  0  0999 V2000
   -4.2884    2.6133    0.1346 C   0  0  0  0  0  0  0  0  0  0  0  0
   -3.9824    1.5992    1.0852 O   0  0  0  0  0  0  0  0  0  0  0  0
   -3.3932    0.4610    0.6085 C   0  0  0  0  0  0  0  0  0  0  0  0
   -3.1224   -0.5070    1.5792 C   0  0  0  0  0  0  0  0  0  0  0  0
   -2.5151   -1.7143    1.2317 C   0  0  0  0  0  0  0  0  0  0  0  0
   -2.1656   -1.9577   -0.0948 C   0  0  0  0  0  0  0  0  0  0  0  0
   -2.4271   -0.9916   -1.0667 C   0  0  0  0  0  0  0  0  0  0  0  0
   -1.9982   -1.2282   -2.4031 N   0  0  0  0  0  0  0  0  0  0  0  0
   -0.7856   -0.2593   -3.0692 S   0  0  0  0  0  0  0  0  0  0  0  0
   -0.3625   -0.9221   -4.2845 O   0  0  0  0  0  0  0  0  0  0  0  0
   -1.2137    1.1227   -3.0760 O   0  0  0  0  0  0  0  0  0  0  0  0
    0.5413   -0.4090   -1.8914 C   0  0  0  0  0  0  0  0  0  0  0  0
    1.5098   -1.3904   -2.0612 C   0  0  0  0  0  0  0  0  0  0  0  0
    2.5464   -1.4892   -1.1322 C   0  0  0  0  0  0  0  0  0  0  0  0
    2.6295   -0.6155   -0.0292 C   0  0  0  0  0  0  0  0  0  0  0  0
    1.6500    0.3841    0.1290 C   0  0  0  0  0  0  0  0  0  0  0  0
    0.6201    0.4878   -0.8217 C   0  0  0  0  0  0  0  0  0  0  0  0
    1.7025    1.2698    1.2398 N   0  0  0  0  0  0  0  0  0  0  0  0
    0.6748    2.2855    1.4225 C   0  0  0  0  0  0  0  0  0  0  0  0
    2.7122    1.1892    2.1966 C   0  0  0  0  0  0  0  0  0  0  0  0
    2.7831    1.9292    3.1747 O   0  0  0  0  0  0  0  0  0  0  0  0
    3.7898    0.1138    2.0142 C   0  0  0  0  0  0  0  0  0  0  0  0
    4.6930    0.0416    2.8440 O   0  0  0  0  0  0  0  0  0  0  0  0
    3.6871   -0.7349    0.9131 N   0  0  0  0  0  0  0  0  0  0  0  0
    4.7115   -1.7549    0.7476 C   0  0  0  0  0  0  0  0  0  0  0  0
   -3.0483    0.2114   -0.7199 C   0  0  0  0  0  0  0  0  0  0  0  0
   -3.3789    2.9931   -0.3425 H   0  0  0  0  0  0  0  0  0  0  0  0
   -5.0063    2.2530   -0.6095 H   0  0  0  0  0  0  0  0  0  0  0  0
   -4.7546    3.4448    0.6720 H   0  0  0  0  0  0  0  0  0  0  0  0
   -3.3907   -0.3175    2.6166 H   0  0  0  0  0  0  0  0  0  0  0  0
   -2.3126   -2.4585    1.9979 H   0  0  0  0  0  0  0  0  0  0  0  0
   -1.6807   -2.8948   -0.3524 H   0  0  0  0  0  0  0  0  0  0  0  0
   -1.9464   -2.1925   -2.7278 H   0  0  0  0  0  0  0  0  0  0  0  0
    1.4749   -2.0746   -2.9065 H   0  0  0  0  0  0  0  0  0  0  0  0
    3.2860   -2.2679   -1.2990 H   0  0  0  0  0  0  0  0  0  0  0  0
   -0.1438    1.2565   -0.7425 H   0  0  0  0  0  0  0  0  0  0  0  0
   -0.3026    1.8019    1.5191 H   0  0  0  0  0  0  0  0  0  0  0  0
    0.8398    2.8818    2.3243 H   0  0  0  0  0  0  0  0  0  0  0  0
    0.6819    2.9688    0.5674 H   0  0  0  0  0  0  0  0  0  0  0  0
    5.2332   -1.5965   -0.2017 H   0  0  0  0  0  0  0  0  0  0  0  0
    5.4590   -1.7239    1.5454 H   0  0  0  0  0  0  0  0  0  0  0  0
    4.2458   -2.7454    0.7684 H   0  0  0  0  0  0  0  0  0  0  0  0
   -3.2527    0.9371   -1.5003 H   0  0  0  0  0  0  0  0  0  0  0  0
  1  2  1  0
  2  3  1  0
  3  4  2  0
  4  5  1  0
  5  6  2  0
  6  7  1  0
  7  8  1  0
  8  9  1  0
  9 10  2  0
  9 11  2  0
  9 12  1  0
 12 13  2  0
 13 14  1  0
 14 15  2  0
 15 16  1  0
 16 17  2  0
 16 18  1  0
 18 19  1  0
 18 20  1  0
 20 21  2  0
 20 22  1  0
 22 23  2  0
 22 24  1  0
 24 25  1  0
  7 26  2  0
 26  3  1  0
 17 12  1  0
 24 15  1  0
  1 27  1  0
  1 28  1  0
  1 29  1  0
  4 30  1  0
  5 31  1  0
  6 32  1  0
  8 33  1  0
 13 34  1  0
 14 35  1  0
 17 36  1  0
 19 37  1  0
 19 38  1  0
 19 39  1  0
 25 40  1  0
 25 41  1  0
 25 42  1  0
 26 43  1  0
M  END
>  <docking_id>  (4) 
PKM2_r04_cid4245024

>  <target>  (4) 
PKM2

>  <compound_id>  (4) 
4245024

>  <admet_priority_rank>  (4) 
4

>  <priority_score>  (4) 
0.7375705126935798

>  <ensemble_calibrated_mean>  (4) 
0.5324675270489284

>  <admet_support_score>  (4) 
0.6496788775128304

>  <toxicity_burden>  (4) 
0.3811814868

>  <label>  (4) 
1

$$$$
PKM2_r05_cid47200821
     RDKit          3D

 41 43  0  0  0  0  0  0  0  0999 V2000
    6.5721    0.5255   -0.2446 C   0  0  0  0  0  0  0  0  0  0  0  0
    5.2210   -0.1276   -0.2085 C   0  0  0  0  0  0  0  0  0  0  0  0
    4.3659   -0.0440   -1.3163 C   0  0  0  0  0  0  0  0  0  0  0  0
    3.1235   -0.6788   -1.2992 C   0  0  0  0  0  0  0  0  0  0  0  0
    2.7389   -1.4060   -0.1701 C   0  0  0  0  0  0  0  0  0  0  0  0
    1.1539   -2.2019   -0.1606 S   0  0  0  0  0  0  0  0  0  0  0  0
    0.9319   -2.7881    1.1449 O   0  0  0  0  0  0  0  0  0  0  0  0
    1.0594   -2.9935   -1.3681 O   0  0  0  0  0  0  0  0  0  0  0  0
    0.0734   -0.8874   -0.3032 N   0  0  0  0  0  0  0  0  0  0  0  0
    0.0734    0.0764    0.8479 C   0  0  0  0  0  0  0  0  0  0  0  0
   -1.2418    0.0602    1.6340 C   0  0  0  0  0  0  0  0  0  0  0  0
   -2.3917    0.3511    0.7763 N   0  0  0  0  0  0  0  0  0  0  0  0
   -3.4987    0.9988    1.3336 C   0  0  0  0  0  0  0  0  0  0  0  0
   -3.5431    1.1951    2.5507 O   0  0  0  0  0  0  0  0  0  0  0  0
   -4.5889    1.4406    0.4750 C   0  0  0  0  0  0  0  0  0  0  0  0
   -5.8686    1.8480    0.8152 C   0  0  0  0  0  0  0  0  0  0  0  0
   -6.5209    2.2183   -0.3842 C   0  0  0  0  0  0  0  0  0  0  0  0
   -5.6009    2.0347   -1.3871 C   0  0  0  0  0  0  0  0  0  0  0  0
   -4.4293    1.5744   -0.8800 O   0  0  0  0  0  0  0  0  0  0  0  0
   -2.3208   -0.1780   -0.5900 C   0  0  0  0  0  0  0  0  0  0  0  0
   -1.2968   -1.3120   -0.7336 C   0  0  0  0  0  0  0  0  0  0  0  0
    3.5875   -1.5170    0.9329 C   0  0  0  0  0  0  0  0  0  0  0  0
    4.8288   -0.8791    0.9085 C   0  0  0  0  0  0  0  0  0  0  0  0
    6.8884    0.8236    0.7605 H   0  0  0  0  0  0  0  0  0  0  0  0
    7.3114   -0.1674   -0.6579 H   0  0  0  0  0  0  0  0  0  0  0  0
    6.5516    1.4309   -0.8601 H   0  0  0  0  0  0  0  0  0  0  0  0
    4.6662    0.5144   -2.2008 H   0  0  0  0  0  0  0  0  0  0  0  0
    2.4650   -0.6103   -2.1622 H   0  0  0  0  0  0  0  0  0  0  0  0
    0.9029   -0.1173    1.5347 H   0  0  0  0  0  0  0  0  0  0  0  0
    0.2426    1.0749    0.4260 H   0  0  0  0  0  0  0  0  0  0  0  0
   -1.4117   -0.9264    2.0814 H   0  0  0  0  0  0  0  0  0  0  0  0
   -1.1864    0.7887    2.4500 H   0  0  0  0  0  0  0  0  0  0  0  0
   -6.2675    1.8714    1.8207 H   0  0  0  0  0  0  0  0  0  0  0  0
   -7.5317    2.5833   -0.5012 H   0  0  0  0  0  0  0  0  0  0  0  0
   -5.6213    2.1836   -2.4580 H   0  0  0  0  0  0  0  0  0  0  0  0
   -2.0438    0.6566   -1.2444 H   0  0  0  0  0  0  0  0  0  0  0  0
   -3.3040   -0.5536   -0.8895 H   0  0  0  0  0  0  0  0  0  0  0  0
   -1.2569   -1.6212   -1.7837 H   0  0  0  0  0  0  0  0  0  0  0  0
   -1.6222   -2.1694   -0.1314 H   0  0  0  0  0  0  0  0  0  0  0  0
    3.2969   -2.0971    1.8058 H   0  0  0  0  0  0  0  0  0  0  0  0
    5.4925   -0.9740    1.7659 H   0  0  0  0  0  0  0  0  0  0  0  0
  1  2  1  0
  2  3  2  0
  3  4  1  0
  4  5  2  0
  5  6  1  0
  6  7  2  0
  6  8  2  0
  6  9  1  0
  9 10  1  0
 10 11  1  0
 11 12  1  0
 12 13  1  0
 13 14  2  0
 13 15  1  0
 15 16  2  0
 16 17  1  0
 17 18  2  0
 18 19  1  0
 12 20  1  0
 20 21  1  0
  5 22  1  0
 22 23  2  0
 23  2  1  0
 21  9  1  0
 19 15  1  0
  1 24  1  0
  1 25  1  0
  1 26  1  0
  3 27  1  0
  4 28  1  0
 10 29  1  0
 10 30  1  0
 11 31  1  0
 11 32  1  0
 16 33  1  0
 17 34  1  0
 18 35  1  0
 20 36  1  0
 20 37  1  0
 21 38  1  0
 21 39  1  0
 22 40  1  0
 23 41  1  0
M  END
>  <docking_id>  (5) 
PKM2_r05_cid47200821

>  <target>  (5) 
PKM2

>  <compound_id>  (5) 
47200821

>  <admet_priority_rank>  (5) 
5

>  <priority_score>  (5) 
0.6334509550241861

>  <ensemble_calibrated_mean>  (5) 
0.2111111119389534

>  <admet_support_score>  (5) 
0.8051959828178237

>  <toxicity_burden>  (5) 
0.3893333376

>  <label>  (5) 
0

$$$$
PKM2_r06_cid24837285
     RDKit          3D

 45 46  0  0  0  0  0  0  0  0999 V2000
    4.6397   -0.4033   -3.0618 C   0  0  0  0  0  0  0  0  0  0  0  0
    4.8339    0.2499   -1.7080 C   0  0  0  0  0  0  0  0  0  0  0  0
    4.6723   -0.7195   -0.6311 N   0  0  0  0  0  0  0  0  0  0  0  0
    4.1971   -0.3864    0.6083 C   0  0  0  0  0  0  0  0  0  0  0  0
    5.0996   -0.9107    1.9183 S   0  0  0  0  0  0  0  0  0  0  0  0
    3.0118    0.3221    0.6730 N   0  0  0  0  0  0  0  0  0  0  0  0
    1.9726    0.1850   -0.3629 C   0  0  0  0  0  0  0  0  0  0  0  0
    0.5683    0.0397    0.2416 C   0  0  0  0  0  0  0  0  0  0  0  0
    0.1928    1.2386    1.0643 N   0  0  0  0  0  0  0  0  0  0  0  0
   -1.1077    0.9928    2.1462 S   0  0  0  0  0  0  0  0  0  0  0  0
   -1.4603    2.2744    2.7191 O   0  0  0  0  0  0  0  0  0  0  0  0
   -0.7569   -0.1310    2.9888 O   0  0  0  0  0  0  0  0  0  0  0  0
   -2.4296    0.5092    1.0668 C   0  0  0  0  0  0  0  0  0  0  0  0
   -2.9865    1.4604    0.2130 C   0  0  0  0  0  0  0  0  0  0  0  0
   -4.0244    1.0885   -0.6400 C   0  0  0  0  0  0  0  0  0  0  0  0
   -4.5154   -0.2284   -0.6437 C   0  0  0  0  0  0  0  0  0  0  0  0
   -5.6420   -0.5879   -1.5750 C   0  0  0  0  0  0  0  0  0  0  0  0
   -3.9550   -1.1836    0.2321 C   0  0  0  0  0  0  0  0  0  0  0  0
   -4.4591   -2.6010    0.2725 C   0  0  0  0  0  0  0  0  0  0  0  0
   -2.9102   -0.8025    1.0886 C   0  0  0  0  0  0  0  0  0  0  0  0
    1.3779    1.9093    1.7019 C   0  0  0  0  0  0  0  0  0  0  0  0
    2.5430    0.9393    1.9287 C   0  0  0  0  0  0  0  0  0  0  0  0
    4.7958    0.3247   -3.8637 H   0  0  0  0  0  0  0  0  0  0  0  0
    5.3459   -1.2280   -3.2048 H   0  0  0  0  0  0  0  0  0  0  0  0
    3.6280   -0.8102   -3.1589 H   0  0  0  0  0  0  0  0  0  0  0  0
    5.8543    0.6418   -1.6276 H   0  0  0  0  0  0  0  0  0  0  0  0
    4.1624    1.1018   -1.5818 H   0  0  0  0  0  0  0  0  0  0  0  0
    5.4798   -1.3268   -0.5367 H   0  0  0  0  0  0  0  0  0  0  0  0
    2.0098    1.0886   -0.9818 H   0  0  0  0  0  0  0  0  0  0  0  0
    2.1796   -0.6806   -0.9996 H   0  0  0  0  0  0  0  0  0  0  0  0
   -0.1550   -0.0633   -0.5739 H   0  0  0  0  0  0  0  0  0  0  0  0
    0.5356   -0.8684    0.8542 H   0  0  0  0  0  0  0  0  0  0  0  0
   -2.6194    2.4843    0.2108 H   0  0  0  0  0  0  0  0  0  0  0  0
   -4.4549    1.8375   -1.3021 H   0  0  0  0  0  0  0  0  0  0  0  0
   -5.3370   -1.3956   -2.2478 H   0  0  0  0  0  0  0  0  0  0  0  0
   -6.5219   -0.8996   -1.0036 H   0  0  0  0  0  0  0  0  0  0  0  0
   -5.9364    0.2638   -2.1976 H   0  0  0  0  0  0  0  0  0  0  0  0
   -5.5176   -2.6202    0.5500 H   0  0  0  0  0  0  0  0  0  0  0  0
   -4.3272   -3.0792   -0.7031 H   0  0  0  0  0  0  0  0  0  0  0  0
   -3.9142   -3.2007    1.0094 H   0  0  0  0  0  0  0  0  0  0  0  0
   -2.4755   -1.5283    1.7738 H   0  0  0  0  0  0  0  0  0  0  0  0
    1.1063    2.3787    2.6529 H   0  0  0  0  0  0  0  0  0  0  0  0
    1.6878    2.7212    1.0323 H   0  0  0  0  0  0  0  0  0  0  0  0
    2.2330    0.1318    2.6031 H   0  0  0  0  0  0  0  0  0  0  0  0
    3.3790    1.4719    2.3947 H   0  0  0  0  0  0  0  0  0  0  0  0
  1  2  1  0
  2  3  1  0
  3  4  1  0
  4  5  2  0
  4  6  1  0
  6  7  1  0
  7  8  1  0
  8  9  1  0
  9 10  1  0
 10 11  2  0
 10 12  2  0
 10 13  1  0
 13 14  2  0
 14 15  1  0
 15 16  2  0
 16 17  1  0
 16 18  1  0
 18 19  1  0
 18 20  2  0
  9 21  1  0
 21 22  1  0
 22  6  1  0
 20 13  1  0
  1 23  1  0
  1 24  1  0
  1 25  1  0
  2 26  1  0
  2 27  1  0
  3 28  1  0
  7 29  1  0
  7 30  1  0
  8 31  1  0
  8 32  1  0
 14 33  1  0
 15 34  1  0
 17 35  1  0
 17 36  1  0
 17 37  1  0
 19 38  1  0
 19 39  1  0
 19 40  1  0
 20 41  1  0
 21 42  1  0
 21 43  1  0
 22 44  1  0
 22 45  1  0
M  END
>  <docking_id>  (6) 
PKM2_r06_cid24837285

>  <target>  (6) 
PKM2

>  <compound_id>  (6) 
24837285

>  <admet_priority_rank>  (6) 
6

>  <priority_score>  (6) 
0.6353858156874542

>  <ensemble_calibrated_mean>  (6) 
0.2111111119389534

>  <admet_support_score>  (6) 
0.7613661969072557

>  <toxicity_burden>  (6) 
0.4226626181999999

>  <label>  (6) 
0

$$$$
PKM2_r07_cid49725559
     RDKit          3D

 30 31  0  0  0  0  0  0  0  0999 V2000
   -0.9796   -1.6578    2.4141 C   0  0  0  0  0  0  0  0  0  0  0  0
   -1.2462   -0.6766    1.3112 C   0  0  0  0  0  0  0  0  0  0  0  0
   -2.3527   -0.8394    0.4668 C   0  0  0  0  0  0  0  0  0  0  0  0
   -2.5934    0.0556   -0.5849 C   0  0  0  0  0  0  0  0  0  0  0  0
   -3.7587   -0.1525   -1.5070 C   0  0  0  0  0  0  0  0  0  0  0  0
   -1.6939    1.1049   -0.8078 C   0  0  0  0  0  0  0  0  0  0  0  0
   -0.5876    1.2685    0.0261 C   0  0  0  0  0  0  0  0  0  0  0  0
    0.3656    2.3029   -0.2295 N   0  0  0  0  0  0  0  0  0  0  0  0
    1.5647    1.9322   -1.3795 S   0  0  0  0  0  0  0  0  0  0  0  0
    0.9194    1.3954   -2.5600 O   0  0  0  0  0  0  0  0  0  0  0  0
    2.4256    3.0918   -1.4762 O   0  0  0  0  0  0  0  0  0  0  0  0
    2.5734    0.6091   -0.7550 C   0  0  0  0  0  0  0  0  0  0  0  0
    2.7281   -0.7044   -1.1574 C   0  0  0  0  0  0  0  0  0  0  0  0
    3.6476   -1.4191   -0.3372 C   0  0  0  0  0  0  0  0  0  0  0  0
    4.1640   -0.6276    0.6646 C   0  0  0  0  0  0  0  0  0  0  0  0
    3.5385    0.9646    0.6131 S   0  0  0  0  0  0  0  0  0  0  0  0
   -0.3574    0.3781    1.0738 C   0  0  0  0  0  0  0  0  0  0  0  0
   -1.9150   -2.0770    2.7992 H   0  0  0  0  0  0  0  0  0  0  0  0
   -0.4716   -1.1723    3.2541 H   0  0  0  0  0  0  0  0  0  0  0  0
   -0.3515   -2.4741    2.0443 H   0  0  0  0  0  0  0  0  0  0  0  0
   -3.0333   -1.6742    0.6279 H   0  0  0  0  0  0  0  0  0  0  0  0
   -4.5970   -0.6178   -0.9780 H   0  0  0  0  0  0  0  0  0  0  0  0
   -4.1167    0.8027   -1.9053 H   0  0  0  0  0  0  0  0  0  0  0  0
   -3.4649   -0.7966   -2.3415 H   0  0  0  0  0  0  0  0  0  0  0  0
   -1.8491    1.7783   -1.6474 H   0  0  0  0  0  0  0  0  0  0  0  0
   -0.0646    3.1839   -0.5125 H   0  0  0  0  0  0  0  0  0  0  0  0
    2.1969   -1.1229   -2.0047 H   0  0  0  0  0  0  0  0  0  0  0  0
    3.9177   -2.4592   -0.4758 H   0  0  0  0  0  0  0  0  0  0  0  0
    4.8809   -0.9049    1.4258 H   0  0  0  0  0  0  0  0  0  0  0  0
    0.5109    0.5085    1.7145 H   0  0  0  0  0  0  0  0  0  0  0  0
  1  2  1  0
  2  3  2  0
  3  4  1  0
  4  5  1  0
  4  6  2  0
  6  7  1  0
  7  8  1  0
  8  9  1  0
  9 10  2  0
  9 11  2  0
  9 12  1  0
 12 13  2  0
 13 14  1  0
 14 15  2  0
 15 16  1  0
  7 17  2  0
 17  2  1  0
 16 12  1  0
  1 18  1  0
  1 19  1  0
  1 20  1  0
  3 21  1  0
  5 22  1  0
  5 23  1  0
  5 24  1  0
  6 25  1  0
  8 26  1  0
 13 27  1  0
 14 28  1  0
 15 29  1  0
 17 30  1  0
M  END
>  <docking_id>  (7) 
PKM2_r07_cid49725559

>  <target>  (7) 
PKM2

>  <compound_id>  (7) 
49725559

>  <admet_priority_rank>  (7) 
7

>  <priority_score>  (7) 
0.582156190110899

>  <ensemble_calibrated_mean>  (7) 
0.370817220211029

>  <admet_support_score>  (7) 
0.7050621909598187

>  <toxicity_burden>  (7) 
0.38506644974

>  <label>  (7) 
0

$$$$
PKM2_r08_cid4258657
     RDKit          3D

 38 39  0  0  0  0  0  0  0  0999 V2000
    5.3300   -0.9336    0.0579 C   0  0  0  0  0  0  0  0  0  0  0  0
    3.8905   -0.4577    0.0172 C   0  0  0  0  0  0  0  0  0  0  0  0
    3.4480    0.1255   -1.6206 S   0  0  0  0  0  0  0  0  0  0  0  0
    4.2206    1.3172   -1.8981 O   0  0  0  0  0  0  0  0  0  0  0  0
    3.4550   -1.0057   -2.5226 O   0  0  0  0  0  0  0  0  0  0  0  0
    1.8446    0.6014   -1.4230 N   0  0  0  0  0  0  0  0  0  0  0  0
    0.8111   -0.4647   -1.3472 C   0  0  0  0  0  0  0  0  0  0  0  0
   -0.5714    0.1336   -1.0577 C   0  0  0  0  0  0  0  0  0  0  0  0
   -0.6042    0.8633    0.2542 N   0  0  0  0  0  0  0  0  0  0  0  0
   -1.2609   -0.0100    1.5658 S   0  0  0  0  0  0  0  0  0  0  0  0
   -1.2159    0.8393    2.7354 O   0  0  0  0  0  0  0  0  0  0  0  0
   -0.6304   -1.3135    1.5529 O   0  0  0  0  0  0  0  0  0  0  0  0
   -2.9654   -0.1916    1.1068 C   0  0  0  0  0  0  0  0  0  0  0  0
   -3.7433    0.9589    0.9262 C   0  0  0  0  0  0  0  0  0  0  0  0
   -5.0836    0.8279    0.5629 C   0  0  0  0  0  0  0  0  0  0  0  0
   -5.6274   -0.4420    0.3897 C   0  0  0  0  0  0  0  0  0  0  0  0
   -6.9142   -0.5641    0.0399 F   0  0  0  0  0  0  0  0  0  0  0  0
   -4.8578   -1.5878    0.5749 C   0  0  0  0  0  0  0  0  0  0  0  0
   -3.5159   -1.4670    0.9384 C   0  0  0  0  0  0  0  0  0  0  0  0
    0.7003    1.5228    0.5983 C   0  0  0  0  0  0  0  0  0  0  0  0
    1.5493    1.8315   -0.6401 C   0  0  0  0  0  0  0  0  0  0  0  0
    5.5859   -1.2856    1.0618 H   0  0  0  0  0  0  0  0  0  0  0  0
    6.0200   -0.1262   -0.2074 H   0  0  0  0  0  0  0  0  0  0  0  0
    5.4929   -1.7568   -0.6451 H   0  0  0  0  0  0  0  0  0  0  0  0
    3.7499    0.3701    0.7172 H   0  0  0  0  0  0  0  0  0  0  0  0
    3.2182   -1.2785    0.2785 H   0  0  0  0  0  0  0  0  0  0  0  0
    1.0753   -1.1864   -0.5685 H   0  0  0  0  0  0  0  0  0  0  0  0
    0.7715   -0.9883   -2.3083 H   0  0  0  0  0  0  0  0  0  0  0  0
   -0.8479    0.8524   -1.8390 H   0  0  0  0  0  0  0  0  0  0  0  0
   -1.3272   -0.6570   -1.0888 H   0  0  0  0  0  0  0  0  0  0  0  0
   -3.3117    1.9471    1.0706 H   0  0  0  0  0  0  0  0  0  0  0  0
   -5.7087    1.7038    0.4177 H   0  0  0  0  0  0  0  0  0  0  0  0
   -5.3110   -2.5653    0.4385 H   0  0  0  0  0  0  0  0  0  0  0  0
   -2.9157   -2.3614    1.0906 H   0  0  0  0  0  0  0  0  0  0  0  0
    1.2776    0.8745    1.2685 H   0  0  0  0  0  0  0  0  0  0  0  0
    0.4816    2.4565    1.1279 H   0  0  0  0  0  0  0  0  0  0  0  0
    1.0197    2.5288   -1.3001 H   0  0  0  0  0  0  0  0  0  0  0  0
    2.4706    2.3315   -0.3250 H   0  0  0  0  0  0  0  0  0  0  0  0
  1  2  1  0
  2  3  1  0
  3  4  2  0
  3  5  2  0
  3  6  1  0
  6  7  1  0
  7  8  1  0
  8  9  1  0
  9 10  1  0
 10 11  2  0
 10 12  2  0
 10 13  1  0
 13 14  2  0
 14 15  1  0
 15 16  2  0
 16 17  1  0
 16 18  1  0
 18 19  2  0
  9 20  1  0
 20 21  1  0
 21  6  1  0
 19 13  1  0
  1 22  1  0
  1 23  1  0
  1 24  1  0
  2 25  1  0
  2 26  1  0
  7 27  1  0
  7 28  1  0
  8 29  1  0
  8 30  1  0
 14 31  1  0
 15 32  1  0
 18 33  1  0
 19 34  1  0
 20 35  1  0
 20 36  1  0
 21 37  1  0
 21 38  1  0
M  END
>  <docking_id>  (8) 
PKM2_r08_cid4258657

>  <target>  (8) 
PKM2

>  <compound_id>  (8) 
4258657

>  <admet_priority_rank>  (8) 
8

>  <priority_score>  (8) 
0.6324042896383102

>  <ensemble_calibrated_mean>  (8) 
0.2063829809427261

>  <admet_support_score>  (8) 
0.8009687639871224

>  <toxicity_burden>  (8) 
0.4643092601999999

>  <label>  (8) 
0

$$$$
